/apps/applications/ansys/2023R1/1/default/v231/fluent/fluent23.1.0/bin/fluent -r23.1.0 -t 40 2ddp -g -i /nobackup/scldr/ACRE/CFD_Macro.scm
/apps/applications/ansys/2023R1/1/default/v231/fluent/fluent23.1.0/cortex/lnamd64/cortex.23.1.0 -f fluent -g -i /nobackup/scldr/ACRE/CFD_Macro.scm (fluent "2ddp -pshmem  -host -r23.1.0 -t40 -mpi=intel -path/apps/applications/ansys/2023R1/1/default/v231/fluent -ssh")

Opening input/output transcript to file "/nobackup/scldr/ACRE/fluent-20231104-105154-160716.trn".
Auto-Transcript Start Time:  10:51:54, 04 Nov 2023 
/apps/applications/ansys/2023R1/1/default/v231/fluent/fluent23.1.0/bin/fluent -r23.1.0 2ddp -pshmem -host -t40 -mpi=intel -path/apps/applications/ansys/2023R1/1/default/v231/fluent -ssh -cx d13s9b1.arc4.leeds.ac.uk:34040:46317
Starting /apps/applications/ansys/2023R1/1/default/v231/fluent/fluent23.1.0/lnamd64/2ddp_host/fluent.23.1.0 host -cx d13s9b1.arc4.leeds.ac.uk:34040:46317 "(list (rpsetvar (QUOTE parallel/function) "fluent 2ddp -flux -node -r23.1.0 -t40 -pshmem -mpi=intel -ssh") (rpsetvar (QUOTE parallel/rhost) "") (rpsetvar (QUOTE parallel/ruser) "") (rpsetvar (QUOTE parallel/nprocs_string) "40") (rpsetvar (QUOTE parallel/auto-spawn?) #t) (rpsetvar (QUOTE parallel/trace-level) 0) (rpsetvar (QUOTE parallel/remote-shell) 1) (rpsetvar (QUOTE parallel/path) "/apps/applications/ansys/2023R1/1/default/v231/fluent") (rpsetvar (QUOTE parallel/hostsfile) "") (rpsetvar (QUOTE gpuapp/devices) ""))"

              Welcome to ANSYS Fluent 2023 R1

              Copyright 1987-2023 ANSYS, Inc. All Rights Reserved.
              Unauthorized use, distribution or duplication is prohibited.
              This product is subject to U.S. laws governing export and re-export.
              For full Legal Notice, see documentation.

Build Time: Nov 28 2022 09:30:44 EST  Build Id: 10208  
 
Connected License Server List:	1055@ansys-research.leeds.ac.uk

     --------------------------------------------------------------
     This is an academic version of ANSYS FLUENT. Usage of this product
     license is limited to the terms and conditions specified in your ANSYS
     license form, additional terms section.
     --------------------------------------------------------------
Host spawning Node 0 on machine "d13s9b1.arc4.leeds.ac.uk" (unix).
/apps/applications/ansys/2023R1/1/default/v231/fluent/fluent23.1.0/bin/fluent -r23.1.0 2ddp -flux -node -t40 -pshmem -mpi=intel -ssh -mport 10.12.170.18:10.12.170.18:34760:0
Starting /apps/applications/ansys/2023R1/1/default/v231/fluent/fluent23.1.0/multiport/mpi/lnamd64/intel2021/bin/mpirun --rsh=ssh -f /tmp/fluent-appfile.scldr.161100 -genv FI_PROVIDER tcp -genv FLUENT_ARCH lnamd64 -genv I_MPI_DEBUG 0 -genv I_MPI_ADJUST_REDUCE 2 -genv I_MPI_ADJUST_ALLREDUCE 2 -genv I_MPI_ADJUST_BCAST 8 -genv I_MPI_ADJUST_BARRIER 2 -genv I_MPI_ADJUST_ALLGATHER 2 -genv I_MPI_ADJUST_GATHER 2 -genv I_MPI_ADJUST_ALLTOALL 1 -genv I_MPI_ADJUST_SCATTER 2 -genv I_MPI_ADJUST_SCATTERV 2 -genv I_MPI_ADJUST_ALLGATHERV 2 -genv I_MPI_ADJUST_GATHERV 2 -genv I_MPI_PLATFORM auto -genv PYTHONHOME /apps/applications/ansys/2023R1/1/default/v231/fluent/fluent23.1.0/../../commonfiles/CPython/3_7/linx64/Release/python -genv FLUENT_PROD_DIR /apps/applications/ansys/2023R1/1/default/v231/fluent/fluent23.1.0 -genv FLUENT_AFFINITY 0 -genv I_MPI_PIN enable -genv KMP_AFFINITY disabled -n 40 /apps/applications/ansys/2023R1/1/default/v231/fluent/fluent23.1.0/lnamd64/2ddp_node/fluent_mpi.23.1.0 node -mpiw intel -pic shmem -mport 10.12.170.18:10.12.170.18:34760:0

-----------------------------------------------------------------------------------------
ID     Hostname              Core   O.S.      PID            Vendor                     
-----------------------------------------------------------------------------------------
n0-39  d13s9b1.arc4.leeds.a  40/40  Linux-64  161154-161193  Intel(R) Xeon(R) Gold 6230 
host   d13s9b1.arc4.leeds.a         Linux-64  160911         Intel(R) Xeon(R) Gold 6230 

MPI Option Selected: intel
Selected system interconnect: shared-memory
-----------------------------------------------------------------------------------------


Initializing SGE
Done.
Cleanup script file is /nobackup/scldr/ACRE/cleanup-fluent-d13s9b1.arc4.leeds.ac.uk-160911.sh

Posting ANSYS Product Improvement Program startup data
Done.

Reading journal file /nobackup/scldr/ACRE/CFD_Macro.scm...

> (ti-menu-load-string (format #f "file/read-case /nobackup/scldr/ACRE/M2.25_N2_Pres_5222_Pres_170_PBS_5000_Coupled_Steady/Mesh.msh ok"))
file/read-case /nobackup/scldr/ACRE/M2.25_N2_Pres_5222_Pres_170_PBS_5000_Coupled_Steady/Mesh.msh 
Reading "/nobackup/scldr/ACRE/M2.25_N2_Pres_5222_Pres_170_PBS_5000_Coupled_Steady/Mesh.msh"...

Buffering for file scan...

  557906 nodes.
  555776 quadrilateral cells, zone 14.
 1109423 2D interior faces, zone 15.
     141 2D wall faces, zone 16.
      22 2D pressure-inlet faces, zone 17.
     301 2D wall faces, zone 18.
     298 2D wall faces, zone 19.
    1342 2D wall faces, zone 20.
      25 2D pressure-outlet faces, zone 21.
     383 2D wall faces, zone 22.
    1746 2D axis faces, zone 23.

Building...
     mesh
	auto partitioning mesh by Metis (fast),
	distributing mesh
		parts........................................,
		faces........................................,
		nodes........................................,
		cells........................................,
        bandwidth reduction using Reverse Cuthill-McKee: 13666/140 = 97.6143
     materials,
     interface,
     domains,
     zones,
	axis
	right_reactor_wall
	outlet
	top_reactor_wall
	left_reactor_wall
	nozzle_wall
	inlet
	reservoir_wall
	int_fluid
	fluid
     parallel,
Done.
Warning: The use of axis boundary conditions is not appropriate for
         a 2D/3D flow problem. Please consider changing the zone
         type to symmetry or wall, or the problem to axisymmetric.

Warning: The use of axis boundary conditions is not appropriate for
         a 2D/3D flow problem. Please consider changing the zone
         type to symmetry or wall, or the problem to axisymmetric.

okinvalid command [ok]
#t


> (ti-menu-load-string (format #f "/mesh/scale 0.001 0.001"))
/mesh/scale 0.001 0.001#t


> (ti-menu-load-string (format #f "/define/models/axisymmetric yes"))
/define/models/axisymmetric yes#t


> (ti-menu-load-string (format #f "/define/models/solver/pressure-based yes"))
/define/models/solver/pressure-based yes#t
; density-based explicit, pressure-based or density-based-implicit
(ti-menu-load-string (format #f "/define/models/energy yes yes yes"))
/define/models/energy yes yes yes#t
  ; enable energy model?, compute viscout energy dissipation?, Including diffusion at inlets?
(ti-menu-load-string (format #f "/define/models/viscous/kw-sst yes"))
/define/models/viscous/kw-sst yes#t


> (ti-menu-load-string (format #f "(rpsetvar' sst-a1 0.31)"))
(rpsetvar' sst-a1 0.31)
sst-a1
#t
  ; 0.31
(ti-menu-load-string (format #f "(rpsetvar' sst-kappa 0.41)"))
(rpsetvar' sst-kappa 0.41)
sst-kappa
#t
; 0.41
(ti-menu-load-string (format #f "(rpsetvar' sst-beta-i2 0.0828)"))
(rpsetvar' sst-beta-i2 0.0828)
sst-beta-i2
#t
 ; 0.0828
(ti-menu-load-string (format #f "(rpsetvar' sst-beta-i1 0.075)"))
(rpsetvar' sst-beta-i1 0.075)
sst-beta-i1
#t
 ; 0.075
(ti-menu-load-string (format #f "(rpsetvar' sst-sig-w2 1.168)"))
(rpsetvar' sst-sig-w2 1.168)
sst-sig-w2
#t
 ; 1.168
(ti-menu-load-string (format #f "(rpsetvar' sst-sig-w1 2)"))
(rpsetvar' sst-sig-w1 2)
sst-sig-w1
#t
 ; 2
(ti-menu-load-string (format #f "(rpsetvar' sst-sig-k2 1)"))
(rpsetvar' sst-sig-k2 1)
sst-sig-k2
#t
 ; 1
(ti-menu-load-string (format #f "(rpsetvar' sst-sig-k1 1.176)"))
(rpsetvar' sst-sig-k1 1.176)
sst-sig-k1
#t
 ; 1.176
(ti-menu-load-string (format #f "/define/materials/copy fluid nitrogen"))
/define/materials/copy fluid nitrogen
nitrogen copied from database.

#t


> (ti-menu-load-string (format #f "/define/boundary-conditions/fluid fluid yes nitrogen no no no no no no no"))
/define/boundary-conditions/fluid (fluid)
fluid yes nitrogen no no no no no no no#t


> (ti-menu-load-string (format #f "/define/materials delete air"))
/define/materials delete air#t


> (ti-menu-load-string (format #f "/define/materials change-create nitrogen nitrogen yes ideal-gas no no yes sutherland three-coefficient-method 1.663e-05 273.11 106.67 no no no"))
/define/materials change-create nitrogen nitrogen nitrogen is a fluid
yes 
Density
ideal-gas no data required.

no no yes 
Viscosity
sutherland three-coefficient-method 1.663e-05 273.11 106.67 
no no no#t


> (ti-menu-load-string (format #f "/define/models/viscous/turb-compressibility no"))
/define/models/viscous/turb-compressibility no#t
 ; Turning compressbility effects off
(ti-menu-load-string (format #f "/define/boundary-conditions/zone-type inlet pressure-inlet"))
/define/boundary-conditions/zone-type inlet pressure-inlet#t


> (ti-menu-load-string (format #f "/define/boundary-conditions/zone-type outlet pressure-outlet"))
/define/boundary-conditions/zone-type outlet pressure-outlet#t


> (ti-menu-load-string (format #f "/define/boundary-conditions/wall left_reactor_wall 0 no 0 no no no 0 no no no no 0 no 0 no 1"))
/define/boundary-conditions/wall (reservoir_wall nozzle_wall left_reactor_wall top_reactor_wall right_reactor_wall)
left_reactor_wall 0 no 0 no no no 0 no no no no 0 no 0 no 1#t


> (ti-menu-load-string (format #f "/define/boundary-conditions/wall nozzle_wall 0 no 0 no no no 0 no no no no 0 no 0 no 1"))
/define/boundary-conditions/wall (reservoir_wall nozzle_wall left_reactor_wall top_reactor_wall right_reactor_wall)
nozzle_wall 0 no 0 no no no 0 no no no no 0 no 0 no 1#t


> (ti-menu-load-string (format #f "/define/boundary-conditions/wall reservoir_wall 0 no 0 no no no 0 no no no no 0 no 0 no 1"))
/define/boundary-conditions/wall (reservoir_wall nozzle_wall left_reactor_wall top_reactor_wall right_reactor_wall)
reservoir_wall 0 no 0 no no no 0 no no no no 0 no 0 no 1#t


> (ti-menu-load-string (format #f "/define/boundary-conditions/wall top_reactor_wall 0 no 0 no no no 0 no no no no 0 no 0 no 1"))
/define/boundary-conditions/wall (reservoir_wall nozzle_wall left_reactor_wall top_reactor_wall right_reactor_wall)
top_reactor_wall 0 no 0 no no no 0 no no no no 0 no 0 no 1#t


> (ti-menu-load-string (format #f "/define/boundary-conditions/wall right_reactor_wall 0 no 0 no no no 0 no no no no 0 no 0 no 1"))
/define/boundary-conditions/wall (reservoir_wall nozzle_wall left_reactor_wall top_reactor_wall right_reactor_wall)
right_reactor_wall 0 no 0 no no no 0 no no no no 0 no 0 no 1#t


> (ti-menu-load-string (format #f "/define/boundary-conditions/pressure-inlet inlet yes no 5222.73 no 0 no 300 no yes no no yes 1 1"))
/define/boundary-conditions/pressure-inlet (inlet)
inlet yes no 5222.73 no 0 no 300 no yes no no yes 1 1#t


> (ti-menu-load-string (format #f "/define/boundary-conditions/pressure-outlet outlet yes no 170.65 no 300 no yes no no yes 1 1 yes no no"))
/define/boundary-conditions/pressure-outlet (outlet)
outlet yes no 170.65 no 300 no yes no no yes 1 1 yes no no#t


> (ti-menu-load-string (format #f "/define/operating-conditions/operating-pressure 0"))
/define/operating-conditions/operating-pressure 0#t
 ; |Value in Pa|
(ti-menu-load-string (format #f "/solve/monitors/residual/convergence-criteria 1e-8 1e-8 1e-8 1e-8 1e-8 1e-8"))
/solve/monitors/residual/convergence-criteria 1e-8 1e-8 1e-8 1e-8 1e-8 1e-8#t


> (ti-menu-load-string (format #f "/solve/set/discretization-scheme/mom 1"))
/solve/set/discretization-scheme/mom 1#t
		; [0 1 4 6] = [First Order, Second Order, QUICK, Third Order]
(ti-menu-load-string (format #f "/solve/set/discretization-scheme/pressure 12"))
/solve/set/discretization-scheme/pressure 12#t
	; [12 10 14 11 13] = [Second, Standard, PRESTO!, Linear, Body Force Weighted]
(ti-menu-load-string (format #f "/solve/set/discretization-scheme/k 1"))
/solve/set/discretization-scheme/k 1#t
		; [0 1 4 6] = [First Order, Second Order, QUICK, Third Order]
(ti-menu-load-string (format #f "/solve/set/discretization-scheme/density 1"))
/solve/set/discretization-scheme/density 1#t
		; [0 1 4 6] = [First Order, Second Order, QUICK, Third Order]
(ti-menu-load-string (format #f "/solve/set/discretization-scheme/omega 1"))
/solve/set/discretization-scheme/omega 1#t
		; [0 1 4 6] = [First Order, Second Order, QUICK, Third Order]
(ti-menu-load-string (format #f "/solve/set/discretization-scheme/temperature 1"))
/solve/set/discretization-scheme/temperature 1#t
	; [0 1 4 6] = [First Order, Second Order, QUICK, Third Order]
(ti-menu-load-string (format #f "/solve/set/flux-type no 0"))
/solve/set/flux-type no 0#t
 				; [0 1], Rhie-Chow Distance, Rhie-Chow momentum
(ti-menu-load-string (format #f "/solve/set/p-v-coupling 24"))
/solve/set/p-v-coupling 24#t
				; [20 21 22 24] = [SIMPLE, SIMPLEC, PISO, Coupled]
(ti-menu-load-string (format #f "/solve/set/warped-face-gradient-correction enable? yes no"))
/solve/set/warped-face-gradient-correction enable? yes  
 Warped-Face Gradient Correction enabled. 
 Options:
 Fast mode 
 Memory saving mode 
no
 Memory saving mode will be used.#t
 ;

;This is just to help convergence, i have left relaxation parameters as default and it seems to converge fine.
(ti-menu-load-string (format #f "/solve/set/high-order-term-relaxation enable? yes"))
/solve/set/high-order-term-relaxation enable? yes#t
; 
; This sets pseudo transient using automating conservative timestepping with a timestep factor of 0.5. This acts as under-relaxation.
;(ti-menu-load-string (format #f "/solve/set/pseudo-transient yes yes 1 0.5 0")) ;
(ti-menu-load-string (format #f "/solve/set/p-v-controls 25 0.5 0.5"))
/solve/set/p-v-controls 25 Invalid real or real not within limits [0 to 1].
0.5 0.5#t
 ;
; setup report definitions
(ti-menu-load-string (format #f "/solve/report-definitions add max-mach surface-vertexmax field mach-number surface-names axis"))
/solve/report-definitions add max-mach surface-vertexmax field mach-number surface-names axis#t
;
(ti-menu-load-string (format #f "/solve/report-files/add max-mach report-defs max-mach"))
/solve/report-files/add max-mach report-defs max-mach#t
;

(ti-menu-load-string (format #f "/solve/report-definitions add min-temp surface-vertexmin field temperature surface-names axis"))
/solve/report-definitions add min-temp surface-vertexmin field temperature surface-names axis#t
;
(ti-menu-load-string (format #f "/solve/report-files/add min-temp report-defs min-temp"))
/solve/report-files/add min-temp report-defs min-temp#t
;

(ti-menu-load-string (format #f "/solve/report-files/edit max-mach file-name M2.25_N2_Pres_5222_Pres_170_PBS_5000_Coupled_Steady/max-mach-convergence.txt"))
/solve/report-files/edit max-mach file-name M2.25_N2_Pres_5222_Pres_170_PBS_5000_Coupled_Steady/max-mach-convergence.txt#t


> (ti-menu-load-string (format #f "/solve/report-files/edit min-temp file-name M2.25_N2_Pres_5222_Pres_170_PBS_5000_Coupled_Steady/min-temp-convergence.txt"))
/solve/report-files/edit min-temp file-name M2.25_N2_Pres_5222_Pres_170_PBS_5000_Coupled_Steady/min-temp-convergence.txt#t


> 
adjoint/                mesh/                   report/
define/                 parallel/               server/
display/                plot/                   solve/
exit                    preferences/            surface/
file/                   print-license-usage     views/

> 
adjoint/                mesh/                   report/
define/                 parallel/               server/
display/                plot/                   solve/
exit                    preferences/            surface/
file/                   print-license-usage     views/

> ; Initialisation settings and number of itterations
(ti-menu-load-string (format #f "/solve/init/hyb-initialization"))
/solve/init/hyb-initialization
Initialize using the hybrid initialization method.

Checking case topology... 
-This case has both inlets & outlets 
-Pressure information is available at the boundaries

	iter		scalar-0		scalar-1

	1		1.000000e+00	1.000000e+00
	2		2.253789e-06	1.422837e-05
	3		4.335737e-07	1.773831e-06
	4		2.255248e-07	2.110153e-07
	5		1.836116e-07	7.390253e-08
	6		1.555915e-07	4.647881e-08
	7		1.332646e-07	3.235028e-08
	8		1.148192e-07	2.381222e-08
	9		9.947181e-08	1.799430e-08
	10		8.665406e-08	1.384149e-08

Hybrid initialization is done.
#t


> (ti-menu-load-string (format #f "solve init fmg y"))
solve init fmg y
Creating multigrid levels... 
 Grid Level  0: 555776 cells, 1113681 faces, 557906 nodes;  40 clusters
 Grid Level  1: 140552 cells, 562265 faces, 557906 nodes;  40 clusters
 Grid Level  1: 140552 cells, 317405 faces,      0 nodes
 Grid Level  2:  41839 cells, 319431 faces, 557906 nodes;  40 clusters
 Grid Level  2:  41839 cells, 108827 faces,      0 nodes
 Grid Level  3:  13118 cells, 194410 faces, 557906 nodes;  40 clusters
 Grid Level  3:  13118 cells,  38120 faces,      0 nodes
 Grid Level  4:   4417 cells, 126020 faces, 557906 nodes;  40 clusters
 Grid Level  4:   4417 cells,  14674 faces,      0 nodes
 Grid Level  5:   1522 cells,  83493 faces, 557906 nodes;  40 clusters
 Grid Level  5:   1522 cells,   6288 faces,      0 nodes
Done.


FMG: Converge FAS on level 5


FMG: Converge FAS on level 4


FMG: Converge FAS on level 3


FMG: Converge FAS on level 2


FMG: Converge FAS on level 1
0.->1.->2.->3.->4.->5.<<<<<

FMG: Initialize flow for Segregated solution.. . end 
#t


> 
adjoint/                mesh/                   report/
define/                 parallel/               server/
display/                plot/                   solve/
exit                    preferences/            surface/
file/                   print-license-usage     views/

> (ti-menu-load-string (format #f "/mesh/adapt/cell-registers/add yplusrefine type yplus-ystar max-allowed 0.5 min-allowed 0.25 q () q () q ()"))
/mesh/adapt/cell-registers/add yplusrefine type yplus-ystar max-allowed 0.5 min-allowed 0.25 q ()
 q ()
()
 q ()
()
#t


> (ti-menu-load-string (format #f "/mesh/adapt/manage-criteria/add criteria1 type expression refinement-expression \"yplusrefine\" "))
/mesh/adapt/manage-criteria/add criteria1 type expression refinement-expression "yplusrefine" #t


> (ti-menu-load-string (format #f "/mesh/adapt/manage-criteria/edit criteria1 frequency 250"))
/mesh/adapt/manage-criteria/edit criteria1 frequency 250#t


> 
adjoint/                mesh/                   report/
define/                 parallel/               server/
display/                plot/                   solve/
exit                    preferences/            surface/
file/                   print-license-usage     views/

> (ti-menu-load-string (format #f "/mesh/adapt/adapt-mesh"))
/mesh/adapt/adapt-mesh#t


> (ti-menu-load-string (format #f "/solve/iterate 50"))
/solve/iterate 50
  iter  continuity  x-velocity  y-velocity      energy           k       omega     time/iter

Adapting mesh...
done.
     1  1.0000e+00  5.9796e-04  5.4415e-05  2.0748e-03  8.5002e-01  4.6881e-01  0:00:42   49
     2  6.1740e-01  2.9602e-04  2.0498e-05  1.6578e-03  8.2891e-01  4.4076e-01  0:00:37   48
     3  4.0624e-01  1.4416e-04  1.3226e-05  1.1587e-03  8.0673e-01  3.8214e-01  0:00:33   47
     4  2.8766e-01  7.1859e-05  9.9089e-06  8.3527e-04  7.2287e-01  3.0445e-01  0:00:29   46
     5  2.3011e-01  3.6642e-05  7.7785e-06  6.1375e-04  4.8471e-01  2.0393e-01  0:00:26   45
     6  2.0102e-01  1.9338e-05  6.5822e-06  4.3360e-04  1.8749e-01  1.0391e-01  0:00:24   44
     7  1.8286e-01  1.1016e-05  5.8199e-06  3.7641e-04  5.1691e-02  9.8265e-02  0:00:23   43
     8  1.6887e-01  6.6981e-06  5.1223e-06  3.6141e-04  1.5374e-02  1.1629e-01  0:00:22   42
     9  1.6189e-01  4.2433e-06  4.4447e-06  3.6371e-04  6.4477e-03  1.2311e-01  0:00:21   41
    10  1.5625e-01  2.8667e-06  3.8930e-06  3.7498e-04  3.9087e-03  1.3019e-01  0:00:20   40
    11  1.5118e-01  2.0846e-06  3.4332e-06  3.9192e-04  2.9462e-03  1.3607e-01  0:00:20   39

  iter  continuity  x-velocity  y-velocity      energy           k       omega     time/iter
    12  1.4725e-01  1.6933e-06  3.0677e-06  4.0844e-04  2.5977e-03  1.3650e-01  0:00:20   38
    13  1.4373e-01  1.4705e-06  2.7793e-06  4.2307e-04  2.7036e-03  1.3084e-01  0:00:20   37
    14  1.3992e-01  1.3361e-06  2.5471e-06  4.3183e-04  3.1339e-03  1.1622e-01  0:00:19   36
    15  1.3540e-01  1.2289e-06  2.3564e-06  4.2596e-04  3.7251e-03  1.0800e-01  0:00:20   35
        Negative k in 62 cells after linear solve.
    16  1.3053e-01  1.1464e-06  2.1853e-06  4.0928e-04  4.3974e-03  9.1657e-02  0:00:19   34
        Negative k in 205 cells after linear solve.
    17  1.2580e-01  1.0922e-06  2.0324e-06  3.6549e-04  5.0135e-03  6.9644e-02  0:00:19   33
    18  1.2140e-01  1.0752e-06  1.8957e-06  3.0980e-04  5.4970e-03  4.1574e-02  0:00:19   32
    19  1.1704e-01  1.0539e-06  1.7632e-06  2.5810e-04  5.6529e-03  3.8194e-02  0:00:18   31
    20  1.1206e-01  1.0339e-06  1.6529e-06  2.1549e-04  5.4475e-03  4.2479e-02  0:00:17   30
    21  1.0719e-01  1.0423e-06  1.5409e-06  1.6976e-04  4.8449e-03  3.4142e-02  0:00:16   29
    22  1.0225e-01  1.0479e-06  1.4423e-06  1.1643e-04  3.9379e-03  3.2062e-02  0:00:15   28

  iter  continuity  x-velocity  y-velocity      energy           k       omega     time/iter
    23  9.7555e-02  1.0481e-06  1.3484e-06  7.9183e-05  2.8669e-03  3.2544e-02  0:00:14   27
    24  9.3034e-02  1.0458e-06  1.2706e-06  4.8108e-05  1.8755e-03  3.4264e-02  0:00:13   26
    25  8.8950e-02  1.0368e-06  1.2005e-06  3.4396e-05  1.2303e-03  5.5074e-02  0:00:12   25
    26  8.4685e-02  1.0249e-06  1.1341e-06  2.6305e-05  8.9740e-04  5.8180e-02  0:00:11   24
    27  8.0507e-02  1.0036e-06  1.0624e-06  2.1896e-05  6.9134e-04  6.1777e-02  0:00:11   23
    28  7.6323e-02  9.7132e-07  9.8478e-07  2.0212e-05  5.6656e-04  7.7591e-02  0:00:10   22
    29  7.2196e-02  9.4057e-07  8.7232e-07  1.8986e-05  4.7711e-04  8.2356e-02  0:00:10   21
    30  6.7895e-02  8.7282e-07  7.8368e-07  1.7309e-05  3.9824e-04  8.0256e-02  0:00:09   20
    31  6.3885e-02  7.7930e-07  6.7828e-07  1.5591e-05  3.1946e-04  7.8488e-02  0:00:09   19
    32  5.9852e-02  6.7928e-07  5.7276e-07  1.3756e-05  2.4663e-04  7.6954e-02  0:00:08   18
    33  5.5980e-02  5.7980e-07  4.7155e-07  1.1806e-05  1.8617e-04  7.5161e-02  0:00:08   17

  iter  continuity  x-velocity  y-velocity      energy           k       omega     time/iter
    34  5.2049e-02  4.7894e-07  3.7894e-07  9.8970e-06  1.3469e-04  7.2440e-02  0:00:07   16
    35  4.8109e-02  4.1361e-07  3.0237e-07  8.3221e-06  9.5925e-05  7.2054e-02  0:00:07   15
    36  4.4870e-02  3.4973e-07  2.4349e-07  6.9092e-06  6.8975e-05  7.1447e-02  0:00:07   14
    37  4.1804e-02  2.9949e-07  1.9852e-07  5.7214e-06  4.9200e-05  6.7095e-02  0:00:06   13
    38  3.8806e-02  2.6417e-07  1.6554e-07  4.7658e-06  3.5738e-05  6.1069e-02  0:00:06   12
    39  3.6456e-02  2.3280e-07  1.4119e-07  3.9766e-06  2.5922e-05  5.5551e-02  0:00:06   11

 Reversed flow on 1 face (4.0% area) of pressure-outlet 21.
    40  3.3897e-02  2.1408e-07  1.2430e-07  3.4137e-06  1.9237e-05  5.2793e-02  0:00:05   10

 Reversed flow on 4 faces (16.0% area) of pressure-outlet 21.
    41  3.1858e-02  2.0067e-07  1.1271e-07  3.0240e-06  1.4791e-05  4.5700e-02  0:00:05    9

 Reversed flow on 6 faces (24.0% area) of pressure-outlet 21.
    42  2.9463e-02  1.8931e-07  1.0342e-07  2.6644e-06  1.1715e-05  3.9775e-02  0:00:05    8

 Reversed flow on 8 faces (32.0% area) of pressure-outlet 21.
    43  2.7030e-02  1.8043e-07  9.5641e-08  2.3256e-06  9.6871e-06  3.4341e-02  0:00:04    7

 Reversed flow on 10 faces (40.0% area) of pressure-outlet 21.
    44  2.5289e-02  1.7109e-07  8.8720e-08  2.0240e-06  8.3253e-06  2.7133e-02  0:00:04    6

 Reversed flow on 12 faces (48.0% area) of pressure-outlet 21.

  iter  continuity  x-velocity  y-velocity      energy           k       omega     time/iter
    45  2.4034e-02  1.6308e-07  8.2468e-08  1.7602e-06  7.4002e-06  2.1575e-02  0:00:03    5

 Reversed flow on 13 faces (52.0% area) of pressure-outlet 21.
    46  2.2925e-02  1.5643e-07  7.6913e-08  1.5443e-06  6.6423e-06  1.7252e-02  0:00:03    4

 Reversed flow on 14 faces (56.0% area) of pressure-outlet 21.
    47  2.2537e-02  1.4821e-07  7.2148e-08  1.3635e-06  6.2684e-06  1.3380e-02  0:00:02    3

 Reversed flow on 15 faces (60.0% area) of pressure-outlet 21.
    48  2.1357e-02  1.4555e-07  6.7528e-08  1.2337e-06  5.8981e-06  1.0804e-02  0:00:01    2

 Reversed flow on 15 faces (60.0% area) of pressure-outlet 21.
    49  2.1807e-02  1.3947e-07  6.2916e-08  1.1082e-06  5.5412e-06  8.6273e-03  0:00:01    1

 Reversed flow on 15 faces (60.0% area) of pressure-outlet 21.
    50  2.1894e-02  1.3313e-07  5.8520e-08  9.9331e-07  5.1709e-06  7.1875e-03  0:00:00    0
#t


> (ti-menu-load-string (format #f "/mesh/adapt/adapt-mesh"))
/mesh/adapt/adapt-mesh#t


> (ti-menu-load-string (format #f "/solve/iterate 50"))
/solve/iterate 50
  iter  continuity  x-velocity  y-velocity      energy           k       omega     time/iter
    50  2.1894e-02  1.3313e-07  5.8520e-08  9.9331e-07  5.1709e-06  7.1875e-03  0:00:34   50

 Reversed flow on 15 faces (60.0% area) of pressure-outlet 21.
    51  2.1643e-02  1.2674e-07  5.4709e-08  8.9641e-07  4.7866e-06  6.2820e-03  0:00:32   49

 Reversed flow on 14 faces (56.0% area) of pressure-outlet 21.
    52  2.1390e-02  1.1973e-07  5.0912e-08  8.1473e-07  4.4524e-06  5.5349e-03  0:00:33   48

 Reversed flow on 12 faces (48.0% area) of pressure-outlet 21.
    53  2.0924e-02  1.1346e-07  4.7645e-08  7.4712e-07  4.1196e-06  4.6867e-03  0:00:32   47

 Reversed flow on 11 faces (44.0% area) of pressure-outlet 21.
    54  2.0227e-02  1.0689e-07  4.4725e-08  6.8579e-07  3.7941e-06  3.9343e-03  0:00:31   46

 Reversed flow on 8 faces (32.0% area) of pressure-outlet 21.
    55  1.9590e-02  1.0022e-07  4.2097e-08  6.3235e-07  3.5511e-06  3.3450e-03  0:00:30   45

 Reversed flow on 4 faces (16.0% area) of pressure-outlet 21.
    56  1.8855e-02  9.4393e-08  3.9790e-08  5.8825e-07  3.3214e-06  2.7744e-03  0:00:29   44
    57  1.8067e-02  8.8638e-08  3.7728e-08  5.4873e-07  3.1231e-06  2.2637e-03  0:00:29   43
    58  1.7351e-02  8.3242e-08  3.5915e-08  5.1299e-07  2.9446e-06  1.7485e-03  0:00:28   42

 Reversed flow on 4 faces (16.0% area) of pressure-outlet 21.
    59  1.6624e-02  7.8339e-08  3.4300e-08  4.8105e-07  2.7591e-06  1.2939e-03  0:00:27   41

 Reversed flow on 5 faces (20.0% area) of pressure-outlet 21.
    60  1.5805e-02  7.3649e-08  3.2675e-08  4.4990e-07  2.5864e-06  8.9824e-04  0:00:25   40

 Reversed flow on 6 faces (24.0% area) of pressure-outlet 21.

  iter  continuity  x-velocity  y-velocity      energy           k       omega     time/iter
    61  1.5079e-02  6.9586e-08  3.1429e-08  4.2291e-07  2.6037e-06  5.8306e-04  0:00:25   39

 Reversed flow on 7 faces (28.0% area) of pressure-outlet 21.
    62  1.4088e-02  6.7327e-08  3.0188e-08  4.1020e-07  2.5517e-06  4.2374e-04  0:00:25   38

 Reversed flow on 8 faces (32.0% area) of pressure-outlet 21.
    63  1.3144e-02  6.4661e-08  2.9120e-08  3.9205e-07  2.4420e-06  3.5573e-04  0:00:25   37

 Reversed flow on 8 faces (32.0% area) of pressure-outlet 21.
    64  1.2211e-02  6.2089e-08  2.8173e-08  3.7296e-07  2.3216e-06  2.8460e-04  0:00:24   36

 Reversed flow on 7 faces (28.0% area) of pressure-outlet 21.
    65  1.1338e-02  5.9608e-08  2.7266e-08  3.5431e-07  2.2088e-06  2.4551e-04  0:00:23   35

 Reversed flow on 6 faces (24.0% area) of pressure-outlet 21.
    66  1.0507e-02  5.7100e-08  2.6351e-08  3.3540e-07  2.1066e-06  2.1332e-04  0:00:22   34

 Reversed flow on 5 faces (20.0% area) of pressure-outlet 21.
    67  9.7538e-03  5.4655e-08  2.5353e-08  3.1867e-07  2.0149e-06  1.9111e-04  0:00:21   33

 Reversed flow on 3 faces (12.0% area) of pressure-outlet 21.
    68  8.9674e-03  5.2336e-08  2.4422e-08  3.0229e-07  1.9239e-06  1.6416e-04  0:00:20   32
    69  8.2068e-03  5.0136e-08  2.3434e-08  2.8746e-07  1.9100e-06  1.4870e-04  0:00:20   31
    70  7.4959e-03  4.8457e-08  2.2380e-08  2.7567e-07  1.8874e-06  1.4538e-04  0:00:19   30
    71  6.9145e-03  4.6462e-08  2.1368e-08  2.6282e-07  1.8274e-06  1.4365e-04  0:00:19   29

  iter  continuity  x-velocity  y-velocity      energy           k       omega     time/iter
    72  6.8103e-03  4.4423e-08  2.0285e-08  2.4927e-07  1.7737e-06  1.3978e-04  0:00:18   28
    73  6.9689e-03  4.2401e-08  1.9193e-08  2.3536e-07  1.6901e-06  1.3578e-04  0:00:17   27
    74  7.1559e-03  4.0317e-08  1.8137e-08  2.2238e-07  1.6785e-06  1.1782e-04  0:00:17   26
    75  7.2243e-03  3.8754e-08  1.7083e-08  2.1233e-07  1.6538e-06  1.2293e-04  0:00:16   25
    76  7.2990e-03  3.6967e-08  1.6075e-08  2.0191e-07  1.6163e-06  1.1300e-04  0:00:16   24
    77  7.3018e-03  3.5304e-08  1.5156e-08  1.9089e-07  1.5735e-06  1.0834e-04  0:00:15   23
    78  7.2859e-03  3.3805e-08  1.4322e-08  1.7978e-07  1.5105e-06  1.0190e-04  0:00:14   22
    79  7.3805e-03  3.2267e-08  1.3551e-08  1.6923e-07  1.5032e-06  1.2658e-04  0:00:14   21
    80  7.2959e-03  3.1294e-08  1.2792e-08  1.6019e-07  1.4816e-06  8.4013e-05  0:00:13   20
    81  7.2389e-03  3.0220e-08  1.2133e-08  1.5050e-07  1.4507e-06  9.4110e-05  0:00:13   19
    82  7.1802e-03  2.9373e-08  1.1560e-08  1.4075e-07  1.4112e-06  9.0844e-05  0:00:12   18

  iter  continuity  x-velocity  y-velocity      energy           k       omega     time/iter
    83  7.1330e-03  2.8670e-08  1.1093e-08  1.3098e-07  1.3562e-06  8.1813e-05  0:00:11   17
    84  7.0461e-03  2.8002e-08  1.0686e-08  1.2177e-07  1.3207e-06  8.4441e-05  0:00:10   16
    85  6.9301e-03  2.7596e-08  1.0331e-08  1.1348e-07  1.2828e-06  7.3822e-05  0:00:10   15
    86  6.7944e-03  2.7194e-08  1.0012e-08  1.0595e-07  1.2464e-06  7.2333e-05  0:00:10   14
    87  6.6527e-03  2.6841e-08  9.7253e-09  9.9395e-08  1.2118e-06  6.9134e-05  0:00:09   13
    88  6.5431e-03  2.6541e-08  9.4874e-09  9.3684e-08  1.1693e-06  6.8060e-05  0:00:08   12
    89  6.4429e-03  2.6210e-08  9.2700e-09  8.8853e-08  1.1351e-06  5.9817e-05  0:00:07   11
    90  6.3340e-03  2.5992e-08  9.0826e-09  8.5090e-08  1.1005e-06  6.1459e-05  0:00:07   10
    91  6.2200e-03  2.5744e-08  8.9207e-09  8.2060e-08  1.0726e-06  5.7921e-05  0:00:06    9
    92  6.1475e-03  2.5528e-08  8.7845e-09  7.9286e-08  1.0437e-06  5.6005e-05  0:00:05    8
    93  6.0807e-03  2.5277e-08  8.6532e-09  7.6809e-08  1.0147e-06  5.4908e-05  0:00:05    7

  iter  continuity  x-velocity  y-velocity      energy           k       omega     time/iter
    94  6.0373e-03  2.5010e-08  8.5204e-09  7.4381e-08  9.8656e-07  5.3406e-05  0:00:04    6
    95  5.9969e-03  2.4746e-08  8.3911e-09  7.2074e-08  9.6287e-07  5.2172e-05  0:00:03    5
    96  5.9638e-03  2.4482e-08  8.2426e-09  6.9955e-08  9.3365e-07  5.1339e-05  0:00:03    4
    97  5.9692e-03  2.4214e-08  8.0916e-09  6.7744e-08  9.0317e-07  5.0407e-05  0:00:02    3
    98  5.9730e-03  2.3926e-08  7.9289e-09  6.5605e-08  8.7786e-07  5.0371e-05  0:00:01    2
    99  5.9553e-03  2.3666e-08  7.7659e-09  6.3506e-08  8.5076e-07  5.0032e-05  0:00:01    1
   100  5.9717e-03  2.3382e-08  7.5942e-09  6.1404e-08  8.2542e-07  5.0550e-05  0:00:00    0
#t


> (ti-menu-load-string (format #f "/mesh/adapt/adapt-mesh"))
/mesh/adapt/adapt-mesh#t


> (ti-menu-load-string (format #f "/solve/iterate 50"))
/solve/iterate 50
  iter  continuity  x-velocity  y-velocity      energy           k       omega     time/iter
   100  5.9717e-03  2.3382e-08  7.5942e-09  6.1404e-08  8.2542e-07  5.0550e-05  0:00:31   50
   101  5.9974e-03  2.3101e-08  7.4214e-09  5.9335e-08  7.9971e-07  5.1271e-05  0:00:29   49
   102  6.0243e-03  2.2753e-08  7.2085e-09  5.7623e-08  7.8325e-07  4.8010e-05  0:00:30   48
   103  6.0154e-03  2.2556e-08  7.0605e-09  5.6002e-08  7.6396e-07  5.3923e-05  0:00:30   47
   104  6.0312e-03  2.2252e-08  6.9141e-09  5.4527e-08  7.3975e-07  5.2755e-05  0:00:29   46
   105  6.0523e-03  2.1880e-08  6.7559e-09  5.2960e-08  7.1325e-07  5.2617e-05  0:00:29   45
   106  6.0581e-03  2.1444e-08  6.5931e-09  5.1553e-08  6.8751e-07  5.3180e-05  0:00:28   44
   107  6.0591e-03  2.0995e-08  6.4397e-09  5.0363e-08  6.6302e-07  5.3599e-05  0:00:27   43
   108  6.0411e-03  2.0487e-08  6.2962e-09  4.9240e-08  6.3945e-07  5.3983e-05  0:00:27   42
   109  6.0197e-03  1.9939e-08  6.1632e-09  4.8253e-08  6.1542e-07  5.4062e-05  0:00:26   41
   110  5.9875e-03  1.9408e-08  6.0240e-09  4.7231e-08  5.9236e-07  5.4096e-05  0:00:26   40

  iter  continuity  x-velocity  y-velocity      energy           k       omega     time/iter
   111  5.9526e-03  1.8876e-08  5.8877e-09  4.6295e-08  5.7190e-07  5.4343e-05  0:00:25   39
   112  5.9032e-03  1.8349e-08  5.7586e-09  4.5389e-08  5.5256e-07  5.4163e-05  0:00:24   38
   113  5.8300e-03  1.7818e-08  5.6285e-09  4.4525e-08  5.3367e-07  5.3628e-05  0:00:24   37
   114  5.7536e-03  1.7289e-08  5.5042e-09  4.3705e-08  5.1466e-07  5.2839e-05  0:00:23   36
   115  5.6651e-03  1.6763e-08  5.3766e-09  4.3023e-08  4.9818e-07  5.1962e-05  0:00:22   35
   116  5.5560e-03  1.6230e-08  5.2506e-09  4.2356e-08  4.8225e-07  5.1117e-05  0:00:22   34
   117  5.4409e-03  1.5634e-08  5.1337e-09  4.1742e-08  4.6828e-07  5.0068e-05  0:00:21   33
   118  5.3150e-03  1.5038e-08  5.0145e-09  4.1132e-08  4.5533e-07  4.9047e-05  0:00:20   32
   119  5.1764e-03  1.4461e-08  4.8893e-09  4.0495e-08  4.4357e-07  4.7476e-05  0:00:20   31
   120  5.0394e-03  1.3904e-08  4.7660e-09  3.9905e-08  4.3361e-07  4.6208e-05  0:00:19   30
   121  4.8956e-03  1.3375e-08  4.6441e-09  3.9306e-08  4.2396e-07  4.4795e-05  0:00:18   29

  iter  continuity  x-velocity  y-velocity      energy           k       omega     time/iter
   122  4.7527e-03  1.2882e-08  4.5268e-09  3.8709e-08  4.1384e-07  4.3140e-05  0:00:18   28
   123  4.5967e-03  1.2419e-08  4.4106e-09  3.8153e-08  4.0665e-07  4.1967e-05  0:00:17   27
   124  4.4377e-03  1.1991e-08  4.3089e-09  3.7651e-08  3.9892e-07  4.0220e-05  0:00:17   26
   125  4.2717e-03  1.1584e-08  4.2118e-09  3.7099e-08  3.8878e-07  3.8391e-05  0:00:16   25
   126  4.0950e-03  1.1182e-08  4.1081e-09  3.6492e-08  3.7960e-07  3.6704e-05  0:00:15   24
   127  3.9054e-03  1.0798e-08  4.0104e-09  3.5919e-08  3.7110e-07  3.5040e-05  0:00:15   23
   128  3.7189e-03  1.0445e-08  3.9125e-09  3.5389e-08  3.6247e-07  3.3662e-05  0:00:14   22
   129  3.5468e-03  1.0101e-08  3.8215e-09  3.4807e-08  3.5431e-07  3.2192e-05  0:00:13   21
   130  3.3786e-03  9.7651e-09  3.7359e-09  3.4281e-08  3.4520e-07  3.0732e-05  0:00:13   20
   131  3.2087e-03  9.4488e-09  3.6471e-09  3.3740e-08  3.3596e-07  2.9243e-05  0:00:12   19
   132  3.0401e-03  9.1443e-09  3.5639e-09  3.3066e-08  3.2288e-07  2.8899e-05  0:00:11   18

  iter  continuity  x-velocity  y-velocity      energy           k       omega     time/iter
   133  2.8785e-03  8.8169e-09  3.4243e-09  3.2695e-08  3.1766e-07  2.6291e-05  0:00:11   17
   134  2.7078e-03  8.5696e-09  3.3755e-09  3.2248e-08  3.1074e-07  2.7041e-05  0:00:10   16
   135  2.5470e-03  8.2977e-09  3.3184e-09  3.1807e-08  3.0310e-07  2.4500e-05  0:00:10   15
   136  2.3912e-03  8.0201e-09  3.2466e-09  3.1245e-08  2.9356e-07  2.3330e-05  0:00:09   14
   137  2.2489e-03  7.7477e-09  3.1687e-09  3.0714e-08  2.8387e-07  2.2640e-05  0:00:09   13
   138  2.1147e-03  7.4915e-09  3.0893e-09  3.0260e-08  2.7452e-07  2.1892e-05  0:00:08   12
   139  1.9901e-03  7.2378e-09  3.0116e-09  2.9834e-08  2.6672e-07  2.1032e-05  0:00:07   11
   140  1.8727e-03  6.9947e-09  2.9433e-09  2.9415e-08  2.5730e-07  2.0236e-05  0:00:06   10
   141  1.7615e-03  6.7561e-09  2.8688e-09  2.8956e-08  2.4750e-07  1.9707e-05  0:00:06    9
   142  1.6593e-03  6.5255e-09  2.7959e-09  2.8510e-08  2.3807e-07  1.9005e-05  0:00:05    8
   143  1.5622e-03  6.3087e-09  2.7205e-09  2.8127e-08  2.2872e-07  1.8475e-05  0:00:04    7

  iter  continuity  x-velocity  y-velocity      energy           k       omega     time/iter
   144  1.4695e-03  6.0947e-09  2.6515e-09  2.7734e-08  2.1827e-07  1.7966e-05  0:00:04    6
   145  1.3876e-03  5.8879e-09  2.5753e-09  2.7344e-08  2.0861e-07  1.7626e-05  0:00:03    5
   146  1.3117e-03  5.6935e-09  2.5029e-09  2.6929e-08  1.9778e-07  1.6564e-05  0:00:02    4
   147  1.2433e-03  5.5053e-09  2.4280e-09  2.6562e-08  1.8705e-07  1.8862e-05  0:00:02    3
   148  1.1898e-03  5.3251e-09  2.3340e-09  2.6300e-08  1.8219e-07  1.8130e-05  0:00:01    2
   149  1.1221e-03  5.1664e-09  2.3026e-09  2.6134e-08  1.7642e-07  1.8417e-05  0:00:01    1
   150  1.0662e-03  4.9970e-09  2.2709e-09  2.5911e-08  1.6953e-07  1.6684e-05  0:00:00    0
#t


> (ti-menu-load-string (format #f "/mesh/adapt/adapt-mesh"))
/mesh/adapt/adapt-mesh#t


> (ti-menu-load-string (format #f "/solve/iterate 50"))
/solve/iterate 50
  iter  continuity  x-velocity  y-velocity      energy           k       omega     time/iter
   150  1.0662e-03  4.9970e-09  2.2709e-09  2.5911e-08  1.6953e-07  1.6684e-05  0:00:32   50
   151  1.0190e-03  4.8357e-09  2.2283e-09  2.5560e-08  1.6245e-07  1.6264e-05  0:00:31   49
   152  9.7737e-04  4.6812e-09  2.1828e-09  2.5223e-08  1.5511e-07  1.6154e-05  0:00:31   48
   153  9.3969e-04  4.5355e-09  2.1313e-09  2.4941e-08  1.4792e-07  1.5978e-05  0:00:30   47
   154  9.0911e-04  4.3925e-09  2.0768e-09  2.4630e-08  1.3856e-07  1.6727e-05  0:00:29   46
   155  8.8715e-04  4.2555e-09  1.9911e-09  2.4401e-08  1.3414e-07  1.6172e-05  0:00:29   45
   156  8.5496e-04  4.1345e-09  1.9578e-09  2.4188e-08  1.2891e-07  1.6465e-05  0:00:28   44
   157  8.2962e-04  4.0087e-09  1.9224e-09  2.4002e-08  1.2394e-07  1.5772e-05  0:00:28   43
   158  8.0747e-04  3.8859e-09  1.8872e-09  2.3765e-08  1.1846e-07  1.5588e-05  0:00:27   42
   159  7.8753e-04  3.7669e-09  1.8466e-09  2.3547e-08  1.1274e-07  1.5473e-05  0:00:27   41
   160  7.6499e-04  3.6553e-09  1.8011e-09  2.3328e-08  1.0691e-07  1.5562e-05  0:00:26   40

  iter  continuity  x-velocity  y-velocity      energy           k       omega     time/iter
   161  7.4523e-04  3.5487e-09  1.7510e-09  2.3138e-08  1.0046e-07  1.6083e-05  0:00:25   39
   162  7.3516e-04  3.4477e-09  1.6827e-09  2.3006e-08  9.7485e-08  1.5758e-05  0:00:24   38
   163  7.1516e-04  3.3492e-09  1.6587e-09  2.2895e-08  9.3719e-08  1.5847e-05  0:00:24   37
   164  6.9689e-04  3.2507e-09  1.6302e-09  2.2787e-08  8.9947e-08  1.5384e-05  0:00:24   36
   165  6.8001e-04  3.1562e-09  1.6026e-09  2.2638e-08  8.6059e-08  1.5281e-05  0:00:23   35
   166  6.6535e-04  3.0623e-09  1.5698e-09  2.2464e-08  8.1746e-08  1.5255e-05  0:00:22   34
   167  6.5104e-04  2.9773e-09  1.5321e-09  2.2277e-08  7.6462e-08  1.5115e-05  0:00:21   33
   168  6.3920e-04  2.8968e-09  1.4745e-09  2.2160e-08  7.3940e-08  1.5320e-05  0:00:21   32
   169  6.2145e-04  2.8150e-09  1.4529e-09  2.2018e-08  7.1011e-08  1.5161e-05  0:00:20   31
   170  6.0563e-04  2.7371e-09  1.4282e-09  2.1894e-08  6.7977e-08  1.5053e-05  0:00:20   30
   171  5.9025e-04  2.6598e-09  1.4019e-09  2.1751e-08  6.4920e-08  1.5043e-05  0:00:19   29

  iter  continuity  x-velocity  y-velocity      energy           k       omega     time/iter
   172  5.7543e-04  2.5852e-09  1.3721e-09  2.1623e-08  6.2023e-08  1.4935e-05  0:00:18   28
   173  5.6053e-04  2.5173e-09  1.3428e-09  2.1498e-08  5.9170e-08  1.4801e-05  0:00:17   27
   174  5.4562e-04  2.4495e-09  1.3088e-09  2.1359e-08  5.6437e-08  1.4668e-05  0:00:17   26
   175  5.3030e-04  2.3860e-09  1.2787e-09  2.1225e-08  5.4007e-08  1.4572e-05  0:00:16   25
   176  5.1553e-04  2.3225e-09  1.2488e-09  2.1108e-08  5.1735e-08  1.4464e-05  0:00:15   24
   177  5.0126e-04  2.2650e-09  1.2204e-09  2.0998e-08  4.9604e-08  1.4407e-05  0:00:14   23
   178  4.8604e-04  2.2062e-09  1.1952e-09  2.0908e-08  4.7455e-08  1.4344e-05  0:00:14   22
   179  4.7129e-04  2.1513e-09  1.1704e-09  2.0832e-08  4.5906e-08  1.4295e-05  0:00:13   21
   180  4.5686e-04  2.0968e-09  1.1494e-09  2.0756e-08  4.4342e-08  1.4251e-05  0:00:13   20
   181  4.4468e-04  2.0423e-09  1.1276e-09  2.0677e-08  4.2858e-08  1.4174e-05  0:00:12   19
   182  4.3261e-04  1.9928e-09  1.1073e-09  2.0587e-08  4.1530e-08  1.4069e-05  0:00:11   18

  iter  continuity  x-velocity  y-velocity      energy           k       omega     time/iter
   183  4.2045e-04  1.9414e-09  1.0869e-09  2.0512e-08  4.0134e-08  1.3981e-05  0:00:11   17
   184  4.0972e-04  1.8929e-09  1.0663e-09  2.0426e-08  3.8675e-08  1.3901e-05  0:00:10   16
   185  3.9903e-04  1.8478e-09  1.0457e-09  2.0324e-08  3.7405e-08  1.3825e-05  0:00:09   15
   186  3.8857e-04  1.8020e-09  1.0247e-09  2.0219e-08  3.6125e-08  1.3756e-05  0:00:09   14
   187  3.7872e-04  1.7580e-09  1.0034e-09  2.0129e-08  3.4958e-08  1.3694e-05  0:00:08   13
   188  3.6897e-04  1.7170e-09  9.8343e-10  2.0030e-08  3.3900e-08  1.3635e-05  0:00:08   12
   189  3.5990e-04  1.6732e-09  9.6437e-10  1.9939e-08  3.2750e-08  1.3547e-05  0:00:07   11
   190  3.5096e-04  1.6350e-09  9.4367e-10  1.9856e-08  3.1708e-08  1.3513e-05  0:00:06   10
   191  3.4344e-04  1.5977e-09  9.2396e-10  1.9770e-08  3.0692e-08  1.3439e-05  0:00:06    9
   192  3.3627e-04  1.5597e-09  9.0633e-10  1.9694e-08  2.9684e-08  1.3426e-05  0:00:05    8
   193  3.2899e-04  1.5238e-09  8.8890e-10  1.9612e-08  2.8762e-08  1.3437e-05  0:00:04    7

  iter  continuity  x-velocity  y-velocity      energy           k       omega     time/iter
   194  3.2171e-04  1.4879e-09  8.7200e-10  1.9526e-08  2.7788e-08  1.3180e-05  0:00:04    6
   195  3.1468e-04  1.4562e-09  8.5325e-10  1.9445e-08  2.6844e-08  1.3624e-05  0:00:03    5
   196  3.0768e-04  1.4265e-09  8.2556e-10  1.9381e-08  2.6215e-08  1.3525e-05  0:00:02    4
   197  3.0009e-04  1.3873e-09  8.2066e-10  1.9347e-08  2.5484e-08  1.3352e-05  0:00:02    3
   198  2.9324e-04  1.3543e-09  8.1321e-10  1.9273e-08  2.4722e-08  1.3307e-05  0:00:01    2
   199  2.8767e-04  1.3228e-09  8.0140e-10  1.9189e-08  2.4009e-08  1.3277e-05  0:00:01    1
   200  2.8128e-04  1.2927e-09  7.8879e-10  1.9110e-08  2.3300e-08  1.3261e-05  0:00:00    0
#t


> (ti-menu-load-string (format #f "/mesh/adapt/adapt-mesh"))
/mesh/adapt/adapt-mesh#t


> (ti-menu-load-string (format #f "/solve/iterate 50"))
/solve/iterate 50
  iter  continuity  x-velocity  y-velocity      energy           k       omega     time/iter
   200  2.8128e-04  1.2927e-09  7.8879e-10  1.9110e-08  2.3300e-08  1.3261e-05  0:00:32   50
   201  2.7541e-04  1.2647e-09  7.7314e-10  1.9035e-08  2.2604e-08  1.3266e-05  0:00:30   49
   202  2.7007e-04  1.2374e-09  7.5805e-10  1.8958e-08  2.1915e-08  1.3236e-05  0:00:30   48
   203  2.6559e-04  1.2101e-09  7.4236e-10  1.8877e-08  2.1298e-08  1.3206e-05  0:00:29   47
   204  2.6089e-04  1.1834e-09  7.2760e-10  1.8790e-08  2.0706e-08  1.3193e-05  0:00:28   46
   205  2.5603e-04  1.1573e-09  7.1357e-10  1.8712e-08  2.0128e-08  1.3184e-05  0:00:28   45
   206  2.5239e-04  1.1331e-09  7.0054e-10  1.8638e-08  1.9593e-08  1.3177e-05  0:00:27   44
   207  2.4749e-04  1.1093e-09  6.8672e-10  1.8561e-08  1.9000e-08  1.3167e-05  0:00:27   43
   208  2.4279e-04  1.0858e-09  6.7332e-10  1.8485e-08  1.8483e-08  1.3160e-05  0:00:26   42
   209  2.3866e-04  1.0629e-09  6.6069e-10  1.8413e-08  1.7959e-08  1.3151e-05  0:00:25   41
   210  2.3473e-04  1.0402e-09  6.4868e-10  1.8344e-08  1.7483e-08  1.3143e-05  0:00:25   40

  iter  continuity  x-velocity  y-velocity      energy           k       omega     time/iter
   211  2.3090e-04  1.0190e-09  6.3629e-10  1.8271e-08  1.7027e-08  1.3135e-05  0:00:24   39
   212  2.2806e-04  9.9790e-10  6.2442e-10  1.8211e-08  1.6595e-08  1.3130e-05  0:00:24   38
   213  2.2469e-04  9.7689e-10  6.1370e-10  1.8144e-08  1.6192e-08  1.3125e-05  0:00:23   37
   214  2.2124e-04  9.5777e-10  6.0168e-10  1.8074e-08  1.5782e-08  1.3117e-05  0:00:22   36
   215  2.1781e-04  9.3878e-10  5.9051e-10  1.8002e-08  1.5390e-08  1.3112e-05  0:00:22   35
   216  2.1438e-04  9.1918e-10  5.7999e-10  1.7931e-08  1.5000e-08  1.3115e-05  0:00:21   34
   217  2.1114e-04  9.0110e-10  5.6924e-10  1.7869e-08  1.4654e-08  1.3102e-05  0:00:21   33
   218  2.0784e-04  8.8210e-10  5.6008e-10  1.7811e-08  1.4321e-08  1.3291e-05  0:00:20   32
   219  2.0509e-04  8.6638e-10  5.4883e-10  1.7740e-08  1.3959e-08  1.3140e-05  0:00:19   31
   220  2.0245e-04  8.5274e-10  5.3038e-10  1.7676e-08  1.3640e-08  1.3077e-05  0:00:19   30
   221  1.9998e-04  8.3243e-10  5.2741e-10  1.7618e-08  1.3369e-08  1.3123e-05  0:00:18   29

  iter  continuity  x-velocity  y-velocity      energy           k       omega     time/iter
   222  1.9691e-04  8.1429e-10  5.2253e-10  1.7570e-08  1.3111e-08  1.3040e-05  0:00:18   28
   223  1.9464e-04  7.9853e-10  5.1568e-10  1.7503e-08  1.2838e-08  1.3048e-05  0:00:17   27
   224  1.9290e-04  7.8348e-10  5.0790e-10  1.7446e-08  1.2526e-08  1.3288e-05  0:00:16   26
   225  1.9249e-04  7.7190e-10  4.9336e-10  1.7394e-08  1.2339e-08  1.3263e-05  0:00:16   25
   226  1.8936e-04  7.5332e-10  4.9129e-10  1.7346e-08  1.2233e-08  1.3288e-05  0:00:16   24
   227  1.8618e-04  7.3661e-10  4.8846e-10  1.7303e-08  1.2085e-08  1.3112e-05  0:00:15   23
   228  1.8408e-04  7.2190e-10  4.8377e-10  1.7243e-08  1.1911e-08  1.3033e-05  0:00:14   22
   229  1.8233e-04  7.0823e-10  4.7735e-10  1.7180e-08  1.1674e-08  1.3016e-05  0:00:14   21
   230  1.8027e-04  6.9581e-10  4.6926e-10  1.7112e-08  1.1392e-08  1.2988e-05  0:00:14   20
   231  1.7837e-04  6.8460e-10  4.5882e-10  1.7047e-08  1.1125e-08  1.3164e-05  0:00:13   19
   232  1.7636e-04  6.7274e-10  4.5012e-10  1.6984e-08  1.0916e-08  1.3060e-05  0:00:12   18

  iter  continuity  x-velocity  y-velocity      energy           k       omega     time/iter
   233  1.7424e-04  6.6041e-10  4.4387e-10  1.6934e-08  1.0730e-08  1.3039e-05  0:00:11   17
   234  1.7174e-04  6.4810e-10  4.3722e-10  1.6871e-08  1.0532e-08  1.3044e-05  0:00:10   16
   235  1.6994e-04  6.3649e-10  4.3020e-10  1.6807e-08  1.0379e-08  1.3026e-05  0:00:10   15
   236  1.6754e-04  6.2638e-10  4.2389e-10  1.6755e-08  1.0238e-08  1.2988e-05  0:00:09   14
   237  1.6610e-04  6.1789e-10  4.1658e-10  1.6692e-08  1.0104e-08  1.3191e-05  0:00:08   13
   238  1.6483e-04  6.1038e-10  4.0526e-10  1.6641e-08  9.8321e-09  1.3109e-05  0:00:08   12
   239  1.6311e-04  5.9604e-10  4.0418e-10  1.6594e-08  9.6710e-09  1.2998e-05  0:00:07   11
   240  1.6191e-04  5.8404e-10  4.0079e-10  1.6551e-08  9.5315e-09  1.3012e-05  0:00:06   10
   241  1.6017e-04  5.7304e-10  3.9680e-10  1.6501e-08  9.4174e-09  1.2978e-05  0:00:06    9
   242  1.5867e-04  5.6369e-10  3.9180e-10  1.6444e-08  9.2657e-09  1.3131e-05  0:00:05    8
   243  1.5676e-04  5.5583e-10  3.8390e-10  1.6383e-08  9.1110e-09  1.3027e-05  0:00:04    7

  iter  continuity  x-velocity  y-velocity      energy           k       omega     time/iter
   244  1.5490e-04  5.4804e-10  3.7648e-10  1.6328e-08  8.9995e-09  1.3014e-05  0:00:04    6
   245  1.5424e-04  5.4217e-10  3.6636e-10  1.6273e-08  8.7526e-09  1.3151e-05  0:00:03    5
   246  1.5201e-04  5.2840e-10  3.6418e-10  1.6229e-08  8.6458e-09  1.3115e-05  0:00:03    4
   247  1.5052e-04  5.1786e-10  3.6112e-10  1.6185e-08  8.5978e-09  1.2979e-05  0:00:02    3
   248  1.4922e-04  5.0802e-10  3.5792e-10  1.6135e-08  8.5357e-09  1.2992e-05  0:00:01    2
   249  1.4806e-04  4.9923e-10  3.5325e-10  1.6089e-08  8.4280e-09  1.2993e-05  0:00:01    1

>> Dividing domain into 40 partitions using Metis.
   Time = 0.0444558 seconds.
   Done.

>> 40 Stored Partitions:
   ----------------------------------------------------------------------
   Collective Partition Statistics:        Minimum   Maximum   Total     
   ----------------------------------------------------------------------
   Cell count                              14813     14938     595286    
   Mean cell count deviation               -0.5%     0.4%      
   Partition boundary cell count           110       618       16575     
   Partition boundary cell count ratio     0.7%      4.2%      2.8%      

   Face count                              29957     30771     1199859   
   Mean face count deviation               -1.0%     1.7%      
   Partition boundary face count           145       776       10402     
   Partition boundary face count ratio     0.5%      2.6%      0.9%      

   Cell weights                            1e+05     1e+05     6e+06     
   Mean cell weight deviation              -17.6%    6.1%      

   Partition neighbor count                1         8         
   ----------------------------------------------------------------------
   Partition Method                        Metis                                
   Stored Partition Count                  40                                   
Done.

Adapting mesh...
done.
   250  9.1702e-03  6.2856e-08  1.1661e-08  8.6113e-08  6.5381e-08  1.4790e-01  0:00:00    0
#t


> (ti-menu-load-string (format #f "/mesh/adapt/adapt-mesh"))
/mesh/adapt/adapt-mesh#t


> 
adjoint/                mesh/                   report/
define/                 parallel/               server/
display/                plot/                   solve/
exit                    preferences/            surface/
file/                   print-license-usage     views/

> (ti-menu-load-string (format #f "/solve/iterate 750"))
/solve/iterate 750
  iter  continuity  x-velocity  y-velocity      energy           k       omega     time/iter
   250  9.1702e-03  6.2856e-08  1.1661e-08  8.6113e-08  6.5381e-08  1.4790e-01  0:09:38  750
   251  4.5896e-03  3.0942e-08  5.8861e-09  3.7970e-08  4.7676e-08  2.6845e-02  0:08:28  749
   252  2.6309e-03  1.6033e-08  3.2130e-09  2.4302e-08  3.3349e-08  6.5345e-03  0:07:45  748
   253  1.7723e-03  8.7535e-09  2.0289e-09  2.0052e-08  2.6815e-08  1.5870e-03  0:07:13  747
   254  1.4774e-03  5.0595e-09  1.3944e-09  1.8350e-08  2.3249e-08  5.9766e-04  0:07:45  746
   255  1.2910e-03  3.1454e-09  1.0519e-09  1.7467e-08  2.0780e-08  2.8545e-04  0:07:29  745
   256  1.1271e-03  2.1229e-09  8.5387e-10  1.6985e-08  1.8661e-08  1.8999e-04  0:07:23  744
   257  9.7648e-04  1.5600e-09  7.3006e-10  1.6714e-08  1.7105e-08  1.8176e-04  0:07:29  743
   258  8.4272e-04  1.2409e-09  6.5504e-10  1.6484e-08  1.5927e-08  1.8306e-04  0:07:33  742
   259  7.2499e-04  1.0477e-09  6.0602e-10  1.6267e-08  1.5279e-08  1.8615e-04  0:07:34  741
   260  6.2402e-04  9.2658e-10  5.6487e-10  1.6105e-08  1.4962e-08  1.7273e-04  0:07:36  740

  iter  continuity  x-velocity  y-velocity      energy           k       omega     time/iter
   261  5.3748e-04  8.4559e-10  5.2935e-10  1.5966e-08  1.4903e-08  1.7072e-04  0:07:39  739
   262  4.6469e-04  7.8804e-10  4.9917e-10  1.5839e-08  1.4890e-08  1.6568e-04  0:07:36  738
   263  4.0452e-04  7.4211e-10  4.7797e-10  1.5717e-08  1.4830e-08  1.5118e-04  0:07:35  737
   264  3.5648e-04  7.0457e-10  4.6288e-10  1.5605e-08  1.4639e-08  1.4122e-04  0:07:33  736
   265  3.1899e-04  6.7312e-10  4.4581e-10  1.5508e-08  1.4514e-08  1.3147e-04  0:07:32  735
   266  2.8928e-04  6.4859e-10  4.2959e-10  1.5419e-08  1.4334e-08  1.2558e-04  0:07:31  734
   267  2.6532e-04  6.2706e-10  4.1467e-10  1.5332e-08  1.4138e-08  1.1724e-04  0:07:31  733
   268  2.4596e-04  6.0934e-10  4.0188e-10  1.5248e-08  1.3876e-08  1.1752e-04  0:07:30  732
   269  2.2972e-04  5.9284e-10  3.8951e-10  1.5167e-08  1.3657e-08  1.1126e-04  0:07:29  731
   270  2.1606e-04  5.8042e-10  3.8042e-10  1.5091e-08  1.3486e-08  1.0606e-04  0:07:29  730
   271  2.0405e-04  5.6977e-10  3.7184e-10  1.5018e-08  1.3248e-08  1.0205e-04  0:07:28  729

  iter  continuity  x-velocity  y-velocity      energy           k       omega     time/iter
   272  1.9412e-04  5.6042e-10  3.6451e-10  1.4944e-08  1.3055e-08  9.6539e-05  0:07:26  728
   273  1.8540e-04  5.5342e-10  3.5876e-10  1.4869e-08  1.2878e-08  9.2555e-05  0:07:25  727
   274  1.7741e-04  5.4744e-10  3.5360e-10  1.4815e-08  1.2675e-08  8.1667e-05  0:07:26  726
   275  1.7007e-04  5.4176e-10  3.4830e-10  1.4737e-08  1.2471e-08  8.9388e-05  0:07:24  725
   276  1.6379e-04  5.3667e-10  3.4290e-10  1.4665e-08  1.2328e-08  8.5591e-05  0:07:25  724
   277  1.5843e-04  5.3175e-10  3.3831e-10  1.4594e-08  1.2125e-08  8.0781e-05  0:07:25  723
   278  1.5315e-04  5.2661e-10  3.3461e-10  1.4535e-08  1.1993e-08  7.7108e-05  0:07:25  722
   279  1.4872e-04  5.2282e-10  3.3075e-10  1.4481e-08  1.1818e-08  6.8877e-05  0:07:25  721
   280  1.4427e-04  5.1776e-10  3.2804e-10  1.4415e-08  1.1761e-08  7.0704e-05  0:07:25  720
   281  1.4044e-04  5.1411e-10  3.2553e-10  1.4349e-08  1.1730e-08  6.5567e-05  0:07:25  719
   282  1.3712e-04  5.1037e-10  3.2257e-10  1.4302e-08  1.1643e-08  5.6771e-05  0:07:28  718

  iter  continuity  x-velocity  y-velocity      energy           k       omega     time/iter
   283  1.3482e-04  5.0598e-10  3.1988e-10  1.4238e-08  1.1531e-08  5.8082e-05  0:07:27  717
   284  1.3259e-04  5.0107e-10  3.1725e-10  1.4182e-08  1.1459e-08  5.4809e-05  0:07:27  716
   285  1.3096e-04  4.9680e-10  3.1505e-10  1.4130e-08  1.1429e-08  5.0740e-05  0:07:25  715
   286  1.2990e-04  4.9325e-10  3.1322e-10  1.4075e-08  1.1366e-08  4.7064e-05  0:07:25  714
   287  1.2890e-04  4.8861e-10  3.1123e-10  1.4023e-08  1.1352e-08  4.3687e-05  0:07:23  713
   288  1.2796e-04  4.8483e-10  3.0971e-10  1.3974e-08  1.1379e-08  4.0610e-05  0:07:22  712
   289  1.2683e-04  4.8179e-10  3.0792e-10  1.3923e-08  1.1336e-08  3.7933e-05  0:07:22  711
   290  1.2558e-04  4.7831e-10  3.0674e-10  1.3874e-08  1.1347e-08  3.6043e-05  0:07:19  710
   291  1.2469e-04  4.7507e-10  3.0511e-10  1.3830e-08  1.1325e-08  3.3519e-05  0:07:19  709
   292  1.2353e-04  4.7115e-10  3.0345e-10  1.3786e-08  1.1293e-08  3.4335e-05  0:07:18  708
   293  1.2281e-04  4.6830e-10  3.0279e-10  1.3741e-08  1.1295e-08  2.9811e-05  0:07:19  707

  iter  continuity  x-velocity  y-velocity      energy           k       omega     time/iter
   294  1.2172e-04  4.6604e-10  3.0103e-10  1.3697e-08  1.1338e-08  2.7281e-05  0:07:18  706
   295  1.2072e-04  4.6442e-10  2.9976e-10  1.3655e-08  1.1349e-08  2.5283e-05  0:07:21  705
   296  1.1909e-04  4.6232e-10  2.9725e-10  1.3613e-08  1.1459e-08  2.3968e-05  0:07:19  704
   297  1.1836e-04  4.6167e-10  2.9626e-10  1.3572e-08  1.1343e-08  2.2243e-05  0:07:19  703
   298  1.1746e-04  4.5867e-10  2.9365e-10  1.3529e-08  1.1382e-08  2.2478e-05  0:07:16  702
   299  1.1661e-04  4.5792e-10  2.9294e-10  1.3490e-08  1.1447e-08  2.1302e-05  0:07:15  701
   300  1.1579e-04  4.5682e-10  2.9238e-10  1.3454e-08  1.1445e-08  1.8823e-05  0:07:14  700
   301  1.1466e-04  4.5476e-10  2.9097e-10  1.3417e-08  1.1418e-08  1.7539e-05  0:07:12  699
   302  1.1366e-04  4.5282e-10  2.8964e-10  1.3379e-08  1.1436e-08  1.6604e-05  0:07:11  698
   303  1.1284e-04  4.5110e-10  2.8849e-10  1.3339e-08  1.1442e-08  1.5825e-05  0:07:09  697
   304  1.1160e-04  4.4968e-10  2.8638e-10  1.3300e-08  1.1401e-08  1.5005e-05  0:07:08  696

  iter  continuity  x-velocity  y-velocity      energy           k       omega     time/iter
   305  1.1126e-04  4.4733e-10  2.8530e-10  1.3261e-08  1.1316e-08  1.4383e-05  0:07:07  695
   306  1.0976e-04  4.4526e-10  2.8379e-10  1.3221e-08  1.1280e-08  1.3729e-05  0:07:06  694
   307  1.0938e-04  4.4307e-10  2.8225e-10  1.3186e-08  1.1214e-08  1.3286e-05  0:07:06  693
   308  1.0935e-04  4.4069e-10  2.7939e-10  1.3151e-08  1.1123e-08  1.2751e-05  0:07:05  692
   309  1.0834e-04  4.3788e-10  2.7725e-10  1.3105e-08  1.1031e-08  1.2131e-05  0:07:03  691
   310  1.0744e-04  4.3502e-10  2.7467e-10  1.3063e-08  1.0971e-08  1.1851e-05  0:07:04  690
   311  1.0715e-04  4.3246e-10  2.7194e-10  1.3025e-08  1.0828e-08  1.1547e-05  0:07:03  689
   312  1.0678e-04  4.2921e-10  2.6941e-10  1.2989e-08  1.0742e-08  1.1310e-05  0:07:02  688
   313  1.0606e-04  4.2662e-10  2.6690e-10  1.2951e-08  1.0634e-08  1.0945e-05  0:06:59  687
   314  1.0522e-04  4.2352e-10  2.6447e-10  1.2918e-08  1.0525e-08  1.0623e-05  0:06:56  686
   315  1.0493e-04  4.2052e-10  2.6254e-10  1.2888e-08  1.0321e-08  1.0349e-05  0:06:54  685

  iter  continuity  x-velocity  y-velocity      energy           k       omega     time/iter
   316  1.0414e-04  4.1667e-10  2.5920e-10  1.2853e-08  1.0233e-08  1.0171e-05  0:06:51  684
   317  1.0398e-04  4.1274e-10  2.5688e-10  1.2821e-08  1.0148e-08  9.9551e-06  0:06:50  683
   318  1.0294e-04  4.0883e-10  2.5407e-10  1.2788e-08  1.0065e-08  9.7653e-06  0:06:48  682
   319  1.0241e-04  4.0503e-10  2.5223e-10  1.2755e-08  9.9168e-09  9.6109e-06  0:06:46  681
   320  1.0184e-04  4.0013e-10  2.4942e-10  1.2724e-08  9.7855e-09  9.5288e-06  0:06:44  680
   321  1.0142e-04  3.9566e-10  2.4756e-10  1.2688e-08  9.6717e-09  9.3239e-06  0:06:42  679
   322  1.0084e-04  3.9104e-10  2.4453e-10  1.2657e-08  9.5448e-09  9.1716e-06  0:06:41  678
   323  1.0054e-04  3.8665e-10  2.4191e-10  1.2624e-08  9.4219e-09  9.0201e-06  0:06:40  677
   324  9.9789e-05  3.8239e-10  2.3860e-10  1.2592e-08  9.2896e-09  8.8415e-06  0:06:38  676
   325  9.9249e-05  3.7749e-10  2.3625e-10  1.2556e-08  9.1944e-09  8.7352e-06  0:06:36  675
   326  9.9031e-05  3.7301e-10  2.3354e-10  1.2521e-08  9.0674e-09  8.6240e-06  0:06:35  674

  iter  continuity  x-velocity  y-velocity      energy           k       omega     time/iter
   327  9.8470e-05  3.6757e-10  2.3102e-10  1.2486e-08  8.9631e-09  8.4305e-06  0:06:49  673
   328  9.8005e-05  3.6247e-10  2.2856e-10  1.2451e-08  8.8638e-09  8.3168e-06  0:06:43  672
   329  9.7394e-05  3.5761e-10  2.2590e-10  1.2417e-08  8.7677e-09  8.2013e-06  0:06:39  671
   330  9.6430e-05  3.5243e-10  2.2318e-10  1.2384e-08  8.6688e-09  8.1554e-06  0:06:35  670
   331  9.5875e-05  3.4717e-10  2.1999e-10  1.2351e-08  8.5539e-09  8.0925e-06  0:06:32  669
   332  9.5334e-05  3.4150e-10  2.1705e-10  1.2323e-08  8.4401e-09  8.0137e-06  0:06:29  668
   333  9.4812e-05  3.3650e-10  2.1385e-10  1.2292e-08  8.3538e-09  7.9390e-06  0:06:26  667
   334  9.4400e-05  3.3134e-10  2.1141e-10  1.2260e-08  8.2468e-09  7.8897e-06  0:06:24  666
   335  9.3995e-05  3.2552e-10  2.0865e-10  1.2228e-08  8.1396e-09  7.8382e-06  0:06:22  665
   336  9.3873e-05  3.2046e-10  2.0600e-10  1.2200e-08  8.0398e-09  7.8421e-06  0:06:20  664
   337  9.3172e-05  3.1464e-10  2.0379e-10  1.2170e-08  7.9144e-09  7.7944e-06  0:06:19  663

  iter  continuity  x-velocity  y-velocity      energy           k       omega     time/iter
   338  9.2440e-05  3.0894e-10  2.0146e-10  1.2142e-08  7.7961e-09  7.7506e-06  0:06:17  662
   339  9.1675e-05  3.0411e-10  1.9859e-10  1.2113e-08  7.6987e-09  7.7736e-06  0:06:16  661
   340  9.0725e-05  2.9855e-10  1.9548e-10  1.2088e-08  7.6007e-09  7.6762e-06  0:06:14  660
   341  8.9772e-05  2.9342e-10  1.9271e-10  1.2061e-08  7.4925e-09  7.6163e-06  0:06:13  659
   342  8.9329e-05  2.8806e-10  1.8966e-10  1.2036e-08  7.3709e-09  7.5710e-06  0:06:11  658
   343  8.8841e-05  2.8321e-10  1.8689e-10  1.2010e-08  7.2522e-09  7.5538e-06  0:06:10  657
   344  8.8796e-05  2.7783e-10  1.8477e-10  1.1985e-08  7.1329e-09  7.4925e-06  0:06:10  656
   345  8.8610e-05  2.7260e-10  1.8253e-10  1.1960e-08  7.0154e-09  7.4575e-06  0:06:08  655
   346  8.8172e-05  2.6738e-10  1.8014e-10  1.1936e-08  6.9150e-09  8.7399e-06  0:06:06  654
   347  8.8017e-05  2.6269e-10  1.7749e-10  1.1917e-08  6.8015e-09  8.2912e-06  0:06:06  653
   348  8.7495e-05  2.5771e-10  1.7502e-10  1.1892e-08  6.6686e-09  7.5297e-06  0:06:05  652

  iter  continuity  x-velocity  y-velocity      energy           k       omega     time/iter
   349  8.6845e-05  2.5300e-10  1.7196e-10  1.1869e-08  6.5785e-09  7.4243e-06  0:06:03  651
   350  8.6165e-05  2.4816e-10  1.6927e-10  1.1845e-08  6.4722e-09  7.3984e-06  0:06:02  650
   351  8.5683e-05  2.4356e-10  1.6689e-10  1.1825e-08  6.3673e-09  7.3416e-06  0:06:02  649
   352  8.4849e-05  2.3904e-10  1.6431e-10  1.1804e-08  6.2382e-09  7.2783e-06  0:06:01  648
   353  8.4332e-05  2.3494e-10  1.6175e-10  1.1781e-08  6.1529e-09  1.1791e-05  0:06:00  647
   354  8.3722e-05  2.3063e-10  1.5859e-10  1.1761e-08  6.0515e-09  8.5141e-06  0:06:00  646
   355  8.3183e-05  2.2654e-10  1.5617e-10  1.1740e-08  5.9317e-09  7.6175e-06  0:05:58  645
   356  8.2799e-05  2.2262e-10  1.5426e-10  1.1721e-08  5.8341e-09  3.3235e-05  0:05:58  644
   357  8.2398e-05  2.1846e-10  1.5234e-10  1.1700e-08  5.7233e-09  1.4093e-05  0:05:58  643
   358  8.2094e-05  2.1447e-10  1.5013e-10  1.1681e-08  5.6000e-09  8.9491e-06  0:05:57  642
   359  8.1498e-05  2.1088e-10  1.4848e-10  1.1664e-08  5.5137e-09  7.6398e-06  0:05:58  641

  iter  continuity  x-velocity  y-velocity      energy           k       omega     time/iter
   360  8.1466e-05  2.0695e-10  1.4661e-10  1.1644e-08  5.4087e-09  7.3012e-06  0:05:57  640
   361  8.1304e-05  2.0343e-10  1.4485e-10  1.1622e-08  5.3259e-09  7.1510e-06  0:05:57  639
   362  8.0345e-05  2.0018e-10  1.4345e-10  1.1599e-08  5.2114e-09  7.2318e-06  0:05:57  638
   363  8.0231e-05  1.9682e-10  1.4233e-10  1.1578e-08  5.1382e-09  8.3546e-06  0:05:57  637
   364  7.9924e-05  1.9342e-10  1.4148e-10  1.1557e-08  5.0574e-09  7.6930e-06  0:05:55  636
   365  7.9671e-05  1.9004e-10  1.4012e-10  1.1538e-08  4.9874e-09  7.7435e-06  0:05:55  635
   366  7.9799e-05  1.8684e-10  1.3866e-10  1.1520e-08  4.8943e-09  7.4032e-06  0:05:54  634
   367  7.9859e-05  1.8360e-10  1.3705e-10  1.1500e-08  4.8118e-09  7.3630e-06  0:05:54  633
   368  7.9931e-05  1.8049e-10  1.3556e-10  1.1479e-08  4.7360e-09  7.3778e-06  0:05:53  632
   369  8.0144e-05  1.7744e-10  1.3399e-10  1.1460e-08  4.6701e-09  7.3905e-06  0:05:52  631
   370  8.0499e-05  1.7441e-10  1.3309e-10  1.1442e-08  4.6161e-09  7.3676e-06  0:05:52  630

  iter  continuity  x-velocity  y-velocity      energy           k       omega     time/iter
   371  8.0480e-05  1.7163e-10  1.3238e-10  1.1425e-08  4.5595e-09  7.2867e-06  0:05:50  629
   372  8.0941e-05  1.6879e-10  1.3175e-10  1.1408e-08  4.4847e-09  7.2077e-06  0:05:50  628
   373  8.0652e-05  1.6618e-10  1.3090e-10  1.1388e-08  4.4104e-09  7.1439e-06  0:05:48  627
   374  8.0902e-05  1.6356e-10  1.3038e-10  1.1368e-08  4.3519e-09  7.0942e-06  0:05:49  626
   375  8.0727e-05  1.6100e-10  1.2974e-10  1.1352e-08  4.2793e-09  7.0569e-06  0:05:47  625
   376  8.0567e-05  1.5842e-10  1.2881e-10  1.1331e-08  4.2177e-09  7.0621e-06  0:05:47  624
   377  8.0324e-05  1.5592e-10  1.2785e-10  1.1312e-08  4.1469e-09  7.0623e-06  0:05:47  623
   378  7.9960e-05  1.5352e-10  1.2678e-10  1.1293e-08  4.0769e-09  7.0689e-06  0:05:47  622
   379  8.0563e-05  1.5107e-10  1.2603e-10  1.1276e-08  4.0305e-09  7.0293e-06  0:05:47  621
   380  8.0960e-05  1.4870e-10  1.2448e-10  1.1258e-08  3.9863e-09  7.0124e-06  0:05:48  620
   381  8.1430e-05  1.4636e-10  1.2306e-10  1.1240e-08  3.9470e-09  7.0321e-06  0:05:47  619

  iter  continuity  x-velocity  y-velocity      energy           k       omega     time/iter
   382  8.1480e-05  1.4411e-10  1.2186e-10  1.1223e-08  3.9084e-09  7.0129e-06  0:05:47  618
   383  8.1463e-05  1.4172e-10  1.2103e-10  1.1205e-08  3.8576e-09  7.0066e-06  0:05:47  617
   384  8.1083e-05  1.3939e-10  1.2014e-10  1.1185e-08  3.8070e-09  6.9763e-06  0:05:47  616
   385  8.0616e-05  1.3713e-10  1.1929e-10  1.1166e-08  3.7594e-09  6.9701e-06  0:05:48  615
   386  8.0371e-05  1.3498e-10  1.1789e-10  1.1149e-08  3.7203e-09  6.9778e-06  0:05:50  614
   387  8.0450e-05  1.3298e-10  1.1683e-10  1.1133e-08  3.6962e-09  6.9801e-06  0:05:50  613
   388  8.0623e-05  1.3082e-10  1.1584e-10  1.1117e-08  3.6646e-09  6.9748e-06  0:05:50  612
   389  8.0625e-05  1.2887e-10  1.1535e-10  1.1100e-08  3.6332e-09  6.9655e-06  0:05:49  611
   390  8.0584e-05  1.2686e-10  1.1420e-10  1.1083e-08  3.5977e-09  6.9709e-06  0:05:49  610
   391  8.0469e-05  1.2504e-10  1.1352e-10  1.1064e-08  3.5785e-09  6.9751e-06  0:05:49  609
   392  7.9895e-05  1.2327e-10  1.1266e-10  1.1048e-08  3.5344e-09  6.9694e-06  0:05:48  608

  iter  continuity  x-velocity  y-velocity      energy           k       omega     time/iter
   393  7.9575e-05  1.2142e-10  1.1195e-10  1.1031e-08  3.5028e-09  6.9993e-06  0:05:49  607
   394  7.9467e-05  1.1975e-10  1.1081e-10  1.1014e-08  3.4627e-09  6.9738e-06  0:05:49  606
   395  7.9370e-05  1.1798e-10  1.0973e-10  1.0997e-08  3.4397e-09  6.9604e-06  0:05:49  605
   396  7.9241e-05  1.1642e-10  1.0870e-10  1.0984e-08  3.4236e-09  6.9357e-06  0:05:48  604
   397  7.9520e-05  1.1469e-10  1.0830e-10  1.0969e-08  3.3964e-09  6.9301e-06  0:05:50  603
   398  7.9416e-05  1.1330e-10  1.0810e-10  1.0954e-08  3.3687e-09  6.9259e-06  0:05:50  602
   399  7.9816e-05  1.1180e-10  1.0771e-10  1.0935e-08  3.3362e-09  6.9363e-06  0:05:51  601
   400  7.9697e-05  1.1033e-10  1.0718e-10  1.0918e-08  3.3036e-09  6.9384e-06  0:05:52  600
   401  7.9734e-05  1.0883e-10  1.0639e-10  1.0902e-08  3.2856e-09  6.9412e-06  0:05:52  599
   402  7.9839e-05  1.0737e-10  1.0618e-10  1.0887e-08  3.2643e-09  6.9360e-06  0:05:51  598
   403  8.0339e-05  1.0598e-10  1.0583e-10  1.0872e-08  3.2478e-09  6.9299e-06  0:05:50  597

  iter  continuity  x-velocity  y-velocity      energy           k       omega     time/iter
   404  8.1211e-05  1.0456e-10  1.0528e-10  1.0857e-08  3.2342e-09  6.9239e-06  0:05:49  596
   405  8.0896e-05  1.0314e-10  1.0447e-10  1.0841e-08  3.2218e-09  6.9189e-06  0:05:50  595
   406  8.0990e-05  1.0192e-10  1.0382e-10  1.0825e-08  3.2074e-09  6.9137e-06  0:05:49  594
   407  8.1172e-05  1.0057e-10  1.0326e-10  1.0807e-08  3.1911e-09  6.9070e-06  0:05:49  593
   408  8.1058e-05  9.9284e-11  1.0294e-10  1.0789e-08  3.1756e-09  6.9047e-06  0:05:48  592
   409  8.1043e-05  9.8131e-11  1.0303e-10  1.0771e-08  3.1592e-09  6.9028e-06  0:05:48  591
   410  8.0937e-05  9.6930e-11  1.0267e-10  1.0754e-08  3.1455e-09  6.9015e-06  0:05:48  590
   411  8.0713e-05  9.5795e-11  1.0244e-10  1.0734e-08  3.1269e-09  6.9223e-06  0:05:48  589
   412  8.0454e-05  9.4728e-11  1.0183e-10  1.0715e-08  3.1153e-09  6.9195e-06  0:05:48  588
   413  8.0502e-05  9.3629e-11  1.0168e-10  1.0697e-08  3.1043e-09  6.9120e-06  0:05:48  587
   414  8.0835e-05  9.2581e-11  1.0160e-10  1.0679e-08  3.0793e-09  6.9048e-06  0:05:49  586

  iter  continuity  x-velocity  y-velocity      energy           k       omega     time/iter
   415  8.1078e-05  9.1492e-11  1.0091e-10  1.0660e-08  3.0599e-09  6.8987e-06  0:05:48  585
   416  8.0754e-05  9.0360e-11  1.0047e-10  1.0640e-08  3.0345e-09  6.8939e-06  0:05:47  584
   417  8.0388e-05  8.9381e-11  9.9510e-11  1.0618e-08  3.0111e-09  6.8900e-06  0:05:46  583
   418  7.9959e-05  8.8438e-11  9.8959e-11  1.0597e-08  2.9953e-09  6.8873e-06  0:05:45  582
   419  7.9450e-05  8.7478e-11  9.7800e-11  1.0576e-08  2.9895e-09  6.8853e-06  0:05:45  581
   420  7.9314e-05  8.6633e-11  9.7265e-11  1.0556e-08  2.9820e-09  6.8839e-06  0:05:44  580
   421  7.9164e-05  8.5724e-11  9.6386e-11  1.0536e-08  2.9693e-09  6.8955e-06  0:05:43  579
   422  7.8605e-05  8.4802e-11  9.5425e-11  1.0514e-08  2.9552e-09  6.9390e-06  0:05:43  578
   423  7.7896e-05  8.3964e-11  9.4674e-11  1.0493e-08  2.9421e-09  6.9006e-06  0:05:42  577
   424  7.7541e-05  8.3197e-11  9.3896e-11  1.0473e-08  2.9318e-09  6.8900e-06  0:05:42  576
   425  7.7449e-05  8.2233e-11  9.3359e-11  1.0453e-08  2.9245e-09  6.8819e-06  0:05:41  575

  iter  continuity  x-velocity  y-velocity      energy           k       omega     time/iter
   426  7.7136e-05  8.1373e-11  9.2961e-11  1.0433e-08  2.9147e-09  6.8770e-06  0:05:40  574
   427  7.6843e-05  8.0525e-11  9.2481e-11  1.0412e-08  2.9093e-09  6.9023e-06  0:05:41  573
   428  7.6662e-05  7.9835e-11  9.2488e-11  1.0392e-08  2.9023e-09  6.8939e-06  0:05:40  572
   429  7.6628e-05  7.9166e-11  9.2311e-11  1.0381e-08  2.8912e-09  7.0614e-06  0:05:40  571
   430  7.6010e-05  7.8373e-11  9.2193e-11  1.0364e-08  2.8847e-09  6.8775e-06  0:05:39  570
   431  7.5428e-05  7.7622e-11  9.1131e-11  1.0342e-08  2.8706e-09  6.8793e-06  0:05:58  569
   432  7.5027e-05  7.6831e-11  9.0489e-11  1.0322e-08  2.8521e-09  6.8929e-06  0:05:55  568
   433  7.4893e-05  7.6264e-11  8.9591e-11  1.0302e-08  2.8416e-09  6.9062e-06  0:05:51  567
   434  7.4521e-05  7.5408e-11  8.8807e-11  1.0282e-08  2.8297e-09  6.9008e-06  0:05:48  566
   435  7.4618e-05  7.4887e-11  8.8232e-11  1.0263e-08  2.8204e-09  6.8924e-06  0:05:46  565
   436  7.4389e-05  7.4194e-11  8.7658e-11  1.0242e-08  2.8093e-09  6.8843e-06  0:05:43  564

  iter  continuity  x-velocity  y-velocity      energy           k       omega     time/iter
   437  7.4464e-05  7.3576e-11  8.7128e-11  1.0229e-08  2.8038e-09  6.9511e-06  0:05:41  563
   438  7.4157e-05  7.2805e-11  8.6827e-11  1.0212e-08  2.8057e-09  6.8900e-06  0:05:39  562
   439  7.3789e-05  7.2198e-11  8.6787e-11  1.0192e-08  2.7917e-09  6.8859e-06  0:05:38  561
   440  7.3308e-05  7.1503e-11  8.6378e-11  1.0173e-08  2.7786e-09  6.8726e-06  0:05:37  560
   441  7.3174e-05  7.0910e-11  8.5761e-11  1.0151e-08  2.7645e-09  6.8811e-06  0:05:36  559
   442  7.2761e-05  7.0289e-11  8.4848e-11  1.0131e-08  2.7565e-09  6.8790e-06  0:05:36  558
   443  7.2321e-05  6.9608e-11  8.4218e-11  1.0110e-08  2.7539e-09  6.8607e-06  0:05:34  557
   444  7.2363e-05  6.8981e-11  8.3401e-11  1.0097e-08  2.7401e-09  7.0027e-06  0:06:30  556
   445  7.1851e-05  6.8378e-11  8.2779e-11  1.0078e-08  2.7362e-09  6.8729e-06  0:06:18  555
   446  7.1398e-05  6.7807e-11  8.1868e-11  1.0057e-08  2.7246e-09  6.8764e-06  0:06:08  554
   447  7.1137e-05  6.7244e-11  8.0823e-11  1.0035e-08  2.7082e-09  6.8693e-06  0:06:01  553

  iter  continuity  x-velocity  y-velocity      energy           k       omega     time/iter
   448  7.0538e-05  6.6663e-11  8.0533e-11  1.0013e-08  2.6952e-09  6.8640e-06  0:05:55  552
   449  6.9871e-05  6.6139e-11  7.9300e-11  9.9918e-09  2.6830e-09  6.8609e-06  0:05:49  551
   450  6.9460e-05  6.5590e-11  7.8953e-11  9.9801e-09  2.6737e-09  6.9894e-06  0:05:45  550
   451  6.8486e-05  6.5107e-11  7.8416e-11  9.9607e-09  2.6675e-09  6.8778e-06  0:05:41  549
   452  6.8287e-05  6.4595e-11  7.7549e-11  9.9398e-09  2.6570e-09  6.8734e-06  0:05:38  548
   453  6.7817e-05  6.4161e-11  7.7376e-11  9.9178e-09  2.6477e-09  6.8657e-06  0:05:36  547
   454  6.7226e-05  6.3707e-11  7.6776e-11  9.8951e-09  2.6387e-09  6.8650e-06  0:05:33  546
   455  6.6663e-05  6.3345e-11  7.5960e-11  9.8735e-09  2.6324e-09  6.8597e-06  0:05:31  545
   456  6.6319e-05  6.3040e-11  7.5092e-11  9.8603e-09  2.6208e-09  6.9854e-06  0:05:30  544
   457  6.5781e-05  6.2463e-11  7.4283e-11  9.8408e-09  2.6157e-09  6.8769e-06  0:05:28  543
   458  6.5573e-05  6.1945e-11  7.3784e-11  9.8207e-09  2.6024e-09  6.8798e-06  0:05:27  542

  iter  continuity  x-velocity  y-velocity      energy           k       omega     time/iter
   459  6.5321e-05  6.1470e-11  7.3525e-11  9.7991e-09  2.5951e-09  6.8735e-06  0:05:26  541
   460  6.5354e-05  6.0886e-11  7.3104e-11  9.7774e-09  2.5883e-09  6.8670e-06  0:05:25  540
   461  6.5261e-05  6.0475e-11  7.2644e-11  9.7646e-09  2.5867e-09  6.9724e-06  0:05:23  539
   462  6.4946e-05  6.0022e-11  7.2221e-11  9.7461e-09  2.5842e-09  6.8764e-06  0:05:23  538
   463  6.4211e-05  5.9491e-11  7.1839e-11  9.7237e-09  2.5649e-09  6.8803e-06  0:05:24  537
   464  6.3684e-05  5.9038e-11  7.1975e-11  9.7003e-09  2.5592e-09  6.8721e-06  0:05:23  536
   465  6.2820e-05  5.8748e-11  7.1255e-11  9.6785e-09  2.5443e-09  6.8658e-06  0:05:21  535
   466  6.2649e-05  5.8308e-11  7.0898e-11  9.6653e-09  2.5314e-09  6.9659e-06  0:05:20  534
   467  6.2178e-05  5.8045e-11  7.0076e-11  9.6487e-09  2.5257e-09  6.8844e-06  0:05:20  533
   468  6.1939e-05  5.7583e-11  6.9367e-11  9.6295e-09  2.5164e-09  6.8860e-06  0:05:19  532
   469  6.2091e-05  5.7459e-11  6.8719e-11  9.6110e-09  2.5089e-09  6.8755e-06  0:05:18  531

  iter  continuity  x-velocity  y-velocity      energy           k       omega     time/iter
   470  6.1691e-05  5.7132e-11  6.8173e-11  9.5915e-09  2.5071e-09  6.8714e-06  0:05:18  530
   471  6.1721e-05  5.6866e-11  6.7671e-11  9.5716e-09  2.5073e-09  6.8567e-06  0:05:17  529
   472  6.1904e-05  5.6513e-11  6.7508e-11  9.5605e-09  2.4994e-09  6.9689e-06  0:05:16  528
   473  6.1232e-05  5.6039e-11  6.7161e-11  9.5413e-09  2.5010e-09  6.9122e-06  0:05:16  527
   474  6.0335e-05  5.5649e-11  6.6497e-11  9.5197e-09  2.4899e-09  6.9147e-06  0:05:15  526
   475  5.9494e-05  5.5241e-11  6.5866e-11  9.4984e-09  2.4871e-09  6.8995e-06  0:05:14  525
   476  5.8783e-05  5.4817e-11  6.5253e-11  9.4778e-09  2.4814e-09  6.8868e-06  0:05:13  524
   477  5.8199e-05  5.4431e-11  6.3878e-11  9.4572e-09  2.4685e-09  6.8773e-06  0:05:14  523
   478  5.7437e-05  5.3990e-11  6.3179e-11  9.4360e-09  2.4638e-09  6.8553e-06  0:05:14  522
   479  5.7217e-05  5.3706e-11  6.2491e-11  9.4151e-09  2.4554e-09  6.8576e-06  0:05:12  521
   480  5.6900e-05  5.3339e-11  6.1938e-11  9.4037e-09  2.4494e-09  6.9669e-06  0:05:12  520

  iter  continuity  x-velocity  y-velocity      energy           k       omega     time/iter
   481  5.6302e-05  5.3078e-11  6.1329e-11  9.3856e-09  2.4480e-09  6.8598e-06  0:05:11  519
   482  5.6047e-05  5.2677e-11  6.0501e-11  9.3654e-09  2.4395e-09  6.8591e-06  0:05:11  518
   483  5.5458e-05  5.2383e-11  6.0031e-11  9.3448e-09  2.4303e-09  6.8542e-06  0:05:11  517
   484  5.5219e-05  5.2014e-11  5.9582e-11  9.3244e-09  2.4243e-09  6.8510e-06  0:05:10  516
   485  5.4554e-05  5.1707e-11  5.8602e-11  9.3034e-09  2.4200e-09  6.8496e-06  0:05:09  515
   486  5.4361e-05  5.1515e-11  5.8565e-11  9.2920e-09  2.4119e-09  6.9542e-06  0:05:09  514
   487  5.3392e-05  5.1184e-11  5.7908e-11  9.2728e-09  2.4097e-09  6.8637e-06  0:05:10  513
   488  5.2870e-05  5.0959e-11  5.7167e-11  9.2521e-09  2.3993e-09  6.8672e-06  0:05:10  512
   489  5.2244e-05  5.0661e-11  5.6634e-11  9.2314e-09  2.3928e-09  6.8614e-06  0:05:09  511
   490  5.2142e-05  5.0429e-11  5.6177e-11  9.2109e-09  2.3887e-09  6.8571e-06  0:05:08  510
   491  5.1754e-05  5.0116e-11  5.5533e-11  9.1908e-09  2.3831e-09  6.8543e-06  0:05:07  509

  iter  continuity  x-velocity  y-velocity      energy           k       omega     time/iter
   492  5.1758e-05  4.9963e-11  5.5190e-11  9.1797e-09  2.3832e-09  6.9513e-06  0:05:06  508
   493  5.1296e-05  4.9607e-11  5.4725e-11  9.1621e-09  2.3705e-09  6.8644e-06  0:05:05  507
   494  5.0808e-05  4.9172e-11  5.4310e-11  9.1414e-09  2.3663e-09  6.8701e-06  0:05:05  506
   495  5.0543e-05  4.8926e-11  5.3950e-11  9.1214e-09  2.3619e-09  6.8633e-06  0:05:05  505
   496  5.0148e-05  4.8631e-11  5.3371e-11  9.1005e-09  2.3546e-09  6.8620e-06  0:05:03  504
   497  5.0150e-05  4.8343e-11  5.3173e-11  9.0800e-09  2.3571e-09  6.8489e-06  0:05:02  503
   498  4.9697e-05  4.8088e-11  5.2903e-11  9.0673e-09  2.3397e-09  6.9739e-06  0:05:01  502
   499  4.9011e-05  4.7888e-11  5.2822e-11  9.0485e-09  2.3405e-09  6.8601e-06  0:05:01  501

Adapting mesh...
done.
   500  3.6956e-04  2.6229e-10  9.3742e-11  9.1834e-09  3.4034e-09  6.8642e-06  0:05:15  500
   501  2.2409e-04  1.5596e-10  6.9725e-11  9.0604e-09  2.7348e-09  6.9520e-06  0:05:09  499
   502  1.3739e-04  1.0281e-10  6.3713e-11  9.0061e-09  2.4663e-09  6.8790e-06  0:05:06  498

  iter  continuity  x-velocity  y-velocity      energy           k       omega     time/iter
   503  9.2255e-05  7.6389e-11  6.0721e-11  8.9790e-09  2.3602e-09  6.8534e-06  0:05:06  497
   504  7.9109e-05  6.2990e-11  5.8389e-11  8.9565e-09  2.3227e-09  6.8490e-06  0:05:04  496
   505  7.4855e-05  5.5572e-11  5.6447e-11  8.9359e-09  2.3093e-09  6.8474e-06  0:05:03  495
   506  7.2764e-05  5.1889e-11  5.4624e-11  8.9169e-09  2.2944e-09  6.8464e-06  0:05:02  494
   507  7.0645e-05  4.9685e-11  5.3086e-11  8.8967e-09  2.2873e-09  6.8460e-06  0:05:00  493
   508  6.8165e-05  4.8401e-11  5.1887e-11  8.8868e-09  2.2822e-09  7.0000e-06  0:04:59  492
   509  6.4299e-05  4.7518e-11  5.0849e-11  8.8702e-09  2.2959e-09  6.8628e-06  0:04:57  491
   510  6.0969e-05  4.6944e-11  4.9677e-11  8.8519e-09  2.2884e-09  6.8639e-06  0:04:57  490
   511  5.7656e-05  4.6418e-11  4.8766e-11  8.8344e-09  2.2806e-09  6.8558e-06  0:04:56  489
   512  5.4635e-05  4.6052e-11  4.7489e-11  8.8166e-09  2.2801e-09  6.8532e-06  0:04:56  488
   513  5.2135e-05  4.5627e-11  4.6734e-11  8.7985e-09  2.2770e-09  6.8637e-06  0:04:56  487

  iter  continuity  x-velocity  y-velocity      energy           k       omega     time/iter
   514  5.0201e-05  4.5443e-11  4.6031e-11  8.7880e-09  2.2703e-09  6.9758e-06  0:04:55  486
   515  4.8001e-05  4.5156e-11  4.5190e-11  8.7714e-09  2.2646e-09  6.8706e-06  0:04:55  485
   516  4.6616e-05  4.4779e-11  4.4495e-11  8.7523e-09  2.2518e-09  6.8746e-06  0:04:54  484
   517  4.5037e-05  4.4461e-11  4.3651e-11  8.7323e-09  2.2349e-09  6.8777e-06  0:04:53  483
   518  4.3430e-05  4.4156e-11  4.3048e-11  8.7115e-09  2.2236e-09  6.8712e-06  0:04:52  482
   519  4.2274e-05  4.3923e-11  4.2420e-11  8.6915e-09  2.2135e-09  6.8465e-06  0:04:50  481
   520  4.1226e-05  4.3676e-11  4.1764e-11  8.6800e-09  2.2072e-09  7.0249e-06  0:04:50  480
   521  4.0183e-05  4.3494e-11  4.1183e-11  8.6639e-09  2.2095e-09  6.8638e-06  0:04:49  479
   522  3.9251e-05  4.3206e-11  4.0685e-11  8.6447e-09  2.1991e-09  6.8574e-06  0:04:49  478
   523  3.8505e-05  4.3056e-11  4.0257e-11  8.6266e-09  2.1917e-09  6.8528e-06  0:04:48  477
   524  3.7772e-05  4.2875e-11  3.9740e-11  8.6073e-09  2.1795e-09  6.8504e-06  0:04:47  476

  iter  continuity  x-velocity  y-velocity      energy           k       omega     time/iter
   525  3.7294e-05  4.2733e-11  3.9386e-11  8.5963e-09  2.1705e-09  7.0039e-06  0:04:46  475
   526  3.6457e-05  4.2473e-11  3.8835e-11  8.5794e-09  2.1638e-09  6.8748e-06  0:04:47  474
   527  3.6215e-05  4.2222e-11  3.8573e-11  8.5600e-09  2.1513e-09  6.8802e-06  0:04:45  473
   528  3.5861e-05  4.2049e-11  3.8158e-11  8.5413e-09  2.1481e-09  6.8824e-06  0:04:45  472
   529  3.5479e-05  4.1835e-11  3.7503e-11  8.5220e-09  2.1401e-09  6.8746e-06  0:04:48  471
   530  3.5160e-05  4.1638e-11  3.7038e-11  8.5037e-09  2.1401e-09  6.8517e-06  0:04:55  470
   531  3.5172e-05  4.1451e-11  3.6615e-11  8.4941e-09  2.1381e-09  7.0050e-06  0:04:52  469
   532  3.4508e-05  4.1301e-11  3.6373e-11  8.4774e-09  2.1387e-09  6.8743e-06  0:04:49  468
   533  3.4326e-05  4.0968e-11  3.5988e-11  8.4593e-09  2.1312e-09  6.8799e-06  0:04:48  467
   534  3.3411e-05  4.0875e-11  3.5727e-11  8.4407e-09  2.1196e-09  6.8716e-06  0:04:46  466
   535  3.3063e-05  4.0675e-11  3.5439e-11  8.4221e-09  2.1174e-09  6.8654e-06  0:04:45  465

  iter  continuity  x-velocity  y-velocity      energy           k       omega     time/iter
   536  3.2288e-05  4.0581e-11  3.4934e-11  8.4038e-09  2.1123e-09  6.9194e-06  0:04:43  464
   537  3.2371e-05  4.0448e-11  3.4412e-11  8.3954e-09  2.0995e-09  6.9143e-06  0:04:41  463
   538  3.1651e-05  4.0279e-11  3.3851e-11  8.3774e-09  2.1015e-09  6.9177e-06  0:04:41  462
   539  3.1474e-05  4.0165e-11  3.3346e-11  8.3591e-09  2.1025e-09  6.9125e-06  0:04:40  461
   540  3.1071e-05  4.0088e-11  3.3099e-11  8.3395e-09  2.1014e-09  6.8962e-06  0:04:38  460
   541  3.0942e-05  3.9998e-11  3.2637e-11  8.3290e-09  2.0810e-09  6.9427e-06  0:04:39  459
   542  3.0257e-05  3.9837e-11  3.2262e-11  8.3100e-09  2.0772e-09  6.8970e-06  0:04:38  458
   543  2.9831e-05  3.9587e-11  3.1779e-11  8.2897e-09  2.0643e-09  6.8956e-06  0:04:37  457
   544  2.9196e-05  3.9503e-11  3.1472e-11  8.2698e-09  2.0543e-09  6.8823e-06  0:04:36  456
   545  2.8938e-05  3.9337e-11  3.1003e-11  8.2586e-09  2.0445e-09  6.9518e-06  0:04:35  455
   546  2.8322e-05  3.9125e-11  3.0314e-11  8.2399e-09  2.0492e-09  6.8889e-06  0:04:36  454

  iter  continuity  x-velocity  y-velocity      energy           k       omega     time/iter
   547  2.7967e-05  3.8980e-11  2.9808e-11  8.2207e-09  2.0474e-09  6.8890e-06  0:04:35  453
   548  2.7348e-05  3.8890e-11  2.9323e-11  8.2012e-09  2.0464e-09  6.8781e-06  0:04:34  452
   549  2.6994e-05  3.8810e-11  2.9067e-11  8.1912e-09  2.0339e-09  6.9533e-06  0:04:33  451
   550  2.6416e-05  3.8636e-11  2.8428e-11  8.1729e-09  2.0315e-09  6.8864e-06  0:04:32  450
   551  2.5973e-05  3.8412e-11  2.8069e-11  8.1537e-09  2.0202e-09  6.9096e-06  0:04:32  449
   552  2.5675e-05  3.8269e-11  2.7630e-11  8.1343e-09  2.0166e-09  6.8995e-06  0:04:31  448
[...]
   835  2.8322e-06  2.1734e-11  4.8596e-12  5.0048e-09  1.1257e-09  6.8541e-06  0:01:42  165
   836  2.9463e-06  2.1736e-11  4.9098e-12  5.0028e-09  1.1319e-09  6.9514e-06  0:01:41  164
   837  2.8483e-06  2.1780e-11  4.8666e-12  4.9938e-09  1.1416e-09  6.8670e-06  0:01:41  163
   838  2.8707e-06  2.1733e-11  4.8959e-12  4.9846e-09  1.1447e-09  6.8701e-06  0:01:41  162
   839  2.8465e-06  2.1740e-11  4.9507e-12  4.9752e-09  1.1456e-09  6.8649e-06  0:01:40  161
   840  2.9062e-06  2.1745e-11  4.9986e-12  4.9733e-09  1.1451e-09  6.9396e-06  0:01:39  160
   841  2.7995e-06  2.1714e-11  4.9245e-12  4.9640e-09  1.1443e-09  6.8767e-06  0:01:39  159
   842  2.8156e-06  2.1628e-11  4.9289e-12  4.9543e-09  1.1413e-09  6.8790e-06  0:01:38  158
   843  2.7860e-06  2.1616e-11  4.9574e-12  4.9445e-09  1.1359e-09  6.8720e-06  0:01:38  157

  iter  continuity  x-velocity  y-velocity      energy           k       omega     time/iter
   844  2.7576e-06  2.1584e-11  4.9806e-12  4.9349e-09  1.1316e-09  6.8669e-06  0:01:36  156
   845  2.8637e-06  2.1574e-11  4.9998e-12  4.9326e-09  1.1249e-09  6.9381e-06  0:01:36  155
   846  2.7282e-06  2.1524e-11  4.9038e-12  4.9231e-09  1.1241e-09  6.8778e-06  0:01:40  154
   847  2.7485e-06  2.1409e-11  4.8908e-12  4.9136e-09  1.1294e-09  6.8796e-06  0:01:38  153
   848  2.7282e-06  2.1452e-11  4.9258e-12  4.9042e-09  1.1235e-09  6.8725e-06  0:01:37  152
   849  2.8196e-06  2.1432e-11  4.9465e-12  4.9020e-09  1.1222e-09  6.9342e-06  0:01:35  151
   850  2.7040e-06  2.1412e-11  4.8630e-12  4.8927e-09  1.1218e-09  6.8806e-06  0:01:34  150
   851  2.7327e-06  2.1296e-11  4.8515e-12  4.8832e-09  1.1216e-09  6.8818e-06  0:01:33  149
   852  2.7145e-06  2.1305e-11  4.8727e-12  4.8736e-09  1.1161e-09  6.8741e-06  0:01:32  148
   853  2.8010e-06  2.1292e-11  4.8912e-12  4.8713e-09  1.1139e-09  6.9330e-06  0:01:31  147
   854  2.6944e-06  2.1255e-11  4.8032e-12  4.8618e-09  1.1066e-09  6.8814e-06  0:01:31  146

  iter  continuity  x-velocity  y-velocity      energy           k       omega     time/iter
   855  2.7273e-06  2.1112e-11  4.7798e-12  4.8520e-09  1.0980e-09  6.8824e-06  0:01:30  145
   856  2.7135e-06  2.1075e-11  4.7805e-12  4.8422e-09  1.0903e-09  6.8747e-06  0:01:29  144
   857  2.7977e-06  2.1054e-11  4.7897e-12  4.8397e-09  1.0875e-09  6.9324e-06  0:01:28  143
   858  2.6983e-06  2.1020e-11  4.7130e-12  4.8303e-09  1.0910e-09  6.8820e-06  0:01:27  142
   859  2.7362e-06  2.0936e-11  4.7062e-12  4.8210e-09  1.0986e-09  6.8835e-06  0:01:27  141
   860  2.7270e-06  2.0990e-11  4.7487e-12  4.8119e-09  1.0955e-09  6.8753e-06  0:01:26  140
   861  2.8074e-06  2.0990e-11  4.7828e-12  4.8096e-09  1.0918e-09  6.9318e-06  0:01:25  139
   862  2.7053e-06  2.0941e-11  4.7081e-12  4.8003e-09  1.0907e-09  6.8820e-06  0:01:25  138
   863  2.7370e-06  2.0831e-11  4.6980e-12  4.7908e-09  1.0876e-09  6.8829e-06  0:01:24  137
   864  2.7203e-06  2.0829e-11  4.7200e-12  4.7813e-09  1.0828e-09  6.8749e-06  0:01:23  136
   865  2.7948e-06  2.0826e-11  4.7465e-12  4.7789e-09  1.0779e-09  6.9317e-06  0:01:23  135

  iter  continuity  x-velocity  y-velocity      energy           k       omega     time/iter
   866  2.6902e-06  2.0782e-11  4.6751e-12  4.7696e-09  1.0761e-09  6.8820e-06  0:01:22  134
   867  2.7201e-06  2.0668e-11  4.6636e-12  4.7601e-09  1.0790e-09  6.8766e-06  0:01:22  133
   868  2.7628e-06  2.0713e-11  4.6957e-12  4.7579e-09  1.0706e-09  6.9341e-06  0:01:21  132
   869  2.7082e-06  2.0631e-11  4.6377e-12  4.7476e-09  1.0694e-09  6.8768e-06  0:01:20  131
   870  2.7472e-06  2.0558e-11  4.6318e-12  4.7373e-09  1.0658e-09  6.8776e-06  0:01:20  130
   871  2.7252e-06  2.0578e-11  4.6587e-12  4.7270e-09  1.0631e-09  6.8707e-06  0:01:19  129
   872  2.7558e-06  2.0598e-11  4.6923e-12  4.7238e-09  1.0618e-09  6.9397e-06  0:01:19  128
   873  2.6723e-06  2.0550e-11  4.6080e-12  4.7140e-09  1.0605e-09  6.8799e-06  0:01:18  127
   874  2.7186e-06  2.0429e-11  4.6022e-12  4.7043e-09  1.0585e-09  6.9154e-06  0:01:17  126
   875  2.7313e-06  2.0472e-11  4.6330e-12  4.7014e-09  1.0516e-09  6.9075e-06  0:01:17  125
   876  2.6658e-06  2.0411e-11  4.5695e-12  4.6916e-09  1.0423e-09  6.9078e-06  0:01:16  124

  iter  continuity  x-velocity  y-velocity      energy           k       omega     time/iter
   877  2.6820e-06  2.0308e-11  4.5569e-12  4.6817e-09  1.0355e-09  6.9020e-06  0:01:15  123
   878  2.6881e-06  2.0306e-11  4.5667e-12  4.6786e-09  1.0329e-09  6.9180e-06  0:01:15  122
   879  2.6323e-06  2.0257e-11  4.5066e-12  4.6689e-09  1.0244e-09  6.8946e-06  0:01:14  121
   880  2.6555e-06  2.0143e-11  4.4985e-12  4.6591e-09  1.0205e-09  6.8915e-06  0:01:14  120
   881  2.6637e-06  2.0136e-11  4.5113e-12  4.6561e-09  1.0238e-09  6.9221e-06  0:01:13  119
   882  2.6187e-06  2.0114e-11  4.4662e-12  4.6468e-09  1.0263e-09  6.8903e-06  0:01:13  118
   883  2.6479e-06  2.0055e-11  4.4781e-12  4.6373e-09  1.0267e-09  6.8894e-06  0:01:12  117
   884  2.6526e-06  2.0065e-11  4.5086e-12  4.6348e-09  1.0331e-09  6.9227e-06  0:01:11  116
   885  2.6076e-06  2.0055e-11  4.4758e-12  4.6256e-09  1.0377e-09  6.8894e-06  0:01:11  115
   886  2.6351e-06  2.0011e-11  4.4963e-12  4.6162e-09  1.0318e-09  6.8888e-06  0:01:10  114
   887  2.6170e-06  1.9983e-11  4.5221e-12  4.6066e-09  1.0274e-09  6.8797e-06  0:01:10  113

  iter  continuity  x-velocity  y-velocity      energy           k       omega     time/iter
   888  2.6462e-06  1.9962e-11  4.5522e-12  4.6039e-09  1.0217e-09  6.9291e-06  0:01:09  112
   889  2.5673e-06  1.9892e-11  4.4755e-12  4.5945e-09  1.0153e-09  6.8838e-06  0:01:08  111
   890  2.5931e-06  1.9789e-11  4.4681e-12  4.5852e-09  1.0102e-09  6.9017e-06  0:01:07  110
   891  2.6210e-06  1.9775e-11  4.4878e-12  4.5830e-09  1.0086e-09  6.8985e-06  0:01:07  109
   892  2.5586e-06  1.9739e-11  4.4393e-12  4.5739e-09  1.0122e-09  6.8967e-06  0:01:07  108
   893  2.5816e-06  1.9694e-11  4.4486e-12  4.5648e-09  1.0112e-09  6.8945e-06  0:01:06  107
   894  2.5636e-06  1.9687e-11  4.4771e-12  4.5557e-09  1.0095e-09  6.8846e-06  0:01:05  106
   895  2.6136e-06  1.9677e-11  4.5095e-12  4.5536e-09  1.0078e-09  6.9100e-06  0:01:05  105
   896  2.5268e-06  1.9628e-11  4.4382e-12  4.5446e-09  1.0063e-09  6.8850e-06  0:01:04  104
   897  2.5511e-06  1.9546e-11  4.4367e-12  4.5355e-09  1.0052e-09  6.8843e-06  0:01:04  103
   898  2.5867e-06  1.9556e-11  4.4629e-12  4.5335e-09  1.0041e-09  6.9098e-06  0:01:03  102

  iter  continuity  x-velocity  y-velocity      energy           k       omega     time/iter
   899  2.5230e-06  1.9526e-11  4.4120e-12  4.5244e-09  1.0043e-09  6.8844e-06  0:01:02  101
   900  2.5498e-06  1.9459e-11  4.4117e-12  4.5153e-09  1.0026e-09  6.8839e-06  0:01:02  100
   901  2.5338e-06  1.9458e-11  4.4337e-12  4.5062e-09  9.9902e-10  6.8762e-06  0:01:01   99
   902  2.5893e-06  1.9447e-11  4.4603e-12  4.5040e-09  1.0006e-09  6.9152e-06  0:01:01   98
   903  2.5056e-06  1.9425e-11  4.3914e-12  4.4950e-09  9.9897e-10  6.8797e-06  0:01:00   97
   904  2.5575e-06  1.9336e-11  4.3901e-12  4.4855e-09  9.9753e-10  6.8784e-06  0:00:59   96
   905  2.5960e-06  1.9376e-11  4.4266e-12  4.4835e-09  9.9790e-10  6.9111e-06  0:00:59   95
   906  2.5434e-06  1.9358e-11  4.3809e-12  4.4746e-09  9.9600e-10  6.8848e-06  0:00:58   94
   907  2.5691e-06  1.9275e-11  4.3961e-12  4.4656e-09  9.9436e-10  6.8841e-06  0:00:57   93
   908  2.5533e-06  1.9274e-11  4.4332e-12  4.4566e-09  9.9439e-10  6.8767e-06  0:00:57   92
   909  2.6081e-06  1.9279e-11  4.4748e-12  4.4547e-09  9.9206e-10  6.9085e-06  0:00:56   91

  iter  continuity  x-velocity  y-velocity      energy           k       omega     time/iter
   910  2.5193e-06  1.9235e-11  4.4064e-12  4.4457e-09  9.8577e-10  6.8797e-06  0:00:55   90
   911  2.5481e-06  1.9116e-11  4.3999e-12  4.4358e-09  9.8542e-10  6.8791e-06  0:00:55   89
   912  2.5529e-06  1.9141e-11  4.4174e-12  4.4331e-09  9.8390e-10  6.9124e-06  0:00:54   88
   913  2.5088e-06  1.9111e-11  4.3508e-12  4.4233e-09  9.8589e-10  6.8800e-06  0:00:54   87
   914  2.5367e-06  1.9061e-11  4.3540e-12  4.4137e-09  9.8294e-10  6.8799e-06  0:00:53   86
   915  2.5427e-06  1.9074e-11  4.3770e-12  4.4111e-09  9.8171e-10  6.9109e-06  0:00:52   85
   916  2.4951e-06  1.9055e-11  4.3153e-12  4.4022e-09  9.8047e-10  6.9074e-06  0:00:52   84
   917  2.5217e-06  1.8973e-11  4.3210e-12  4.3934e-09  9.7511e-10  6.9082e-06  0:00:51   83
   918  2.5521e-06  1.8963e-11  4.3465e-12  4.3916e-09  9.7160e-10  6.8700e-06  0:00:50   82
   919  2.4922e-06  1.8924e-11  4.2885e-12  4.3825e-09  9.6835e-10  6.8975e-06  0:00:52   81
   920  2.5268e-06  1.8835e-11  4.2952e-12  4.3731e-09  9.7203e-10  6.8939e-06  0:00:51   80

  iter  continuity  x-velocity  y-velocity      energy           k       omega     time/iter
   921  2.5309e-06  1.8894e-11  4.3326e-12  4.3712e-09  9.6974e-10  6.8856e-06  0:00:50   79
   922  2.4786e-06  1.8851e-11  4.2707e-12  4.3622e-09  9.6933e-10  6.8812e-06  0:00:49   78
   923  2.5047e-06  1.8794e-11  4.2803e-12  4.3532e-09  9.6911e-10  6.8793e-06  0:00:48   77
   924  2.5159e-06  1.8826e-11  4.3143e-12  4.3512e-09  9.6761e-10  6.8905e-06  0:00:47   76
   925  2.4621e-06  1.8780e-11  4.2480e-12  4.3421e-09  9.6585e-10  6.8781e-06  0:00:47   75
   926  2.4907e-06  1.8704e-11  4.2468e-12  4.3329e-09  9.6459e-10  6.8786e-06  0:00:46   74
   927  2.4991e-06  1.8725e-11  4.2742e-12  4.3307e-09  9.6216e-10  6.8897e-06  0:00:45   73
   928  2.4497e-06  1.8679e-11  4.2059e-12  4.3215e-09  9.6160e-10  6.8779e-06  0:00:44   72
   929  2.4770e-06  1.8609e-11  4.2066e-12  4.3125e-09  9.6004e-10  6.8770e-06  0:00:44   71
   930  2.4851e-06  1.8625e-11  4.2378e-12  4.3103e-09  9.6042e-10  6.8909e-06  0:00:43   70
   931  2.4395e-06  1.8589e-11  4.1743e-12  4.3013e-09  9.5625e-10  6.8731e-06  0:00:43   69

  iter  continuity  x-velocity  y-velocity      energy           k       omega     time/iter
   932  2.4659e-06  1.8498e-11  4.1726e-12  4.2923e-09  9.5062e-10  6.8726e-06  0:00:42   68
   933  2.4730e-06  1.8487e-11  4.1909e-12  4.2903e-09  9.4916e-10  6.8961e-06  0:00:41   67
   934  2.4321e-06  1.8451e-11  4.1334e-12  4.2816e-09  9.4687e-10  6.8741e-06  0:00:40   66
   935  2.4676e-06  1.8382e-11  4.1378e-12  4.2729e-09  9.4606e-10  6.8743e-06  0:00:40   65
   936  2.4918e-06  1.8394e-11  4.1686e-12  4.2712e-09  9.4289e-10  6.8941e-06  0:00:39   64
   937  2.4434e-06  1.8357e-11  4.1256e-12  4.2623e-09  9.3767e-10  6.8755e-06  0:00:39   63
   938  2.4713e-06  1.8273e-11  4.1274e-12  4.2535e-09  9.3308e-10  6.8751e-06  0:00:38   62
   939  2.4772e-06  1.8274e-11  4.1496e-12  4.2516e-09  9.2909e-10  6.8929e-06  0:00:38   61
   940  2.4310e-06  1.8233e-11  4.1027e-12  4.2427e-09  9.3287e-10  6.8771e-06  0:00:37   60
   941  2.4602e-06  1.8199e-11  4.1107e-12  4.2342e-09  9.3504e-10  6.8760e-06  0:00:36   59
   942  2.4652e-06  1.8239e-11  4.1506e-12  4.2325e-09  9.3515e-10  6.8929e-06  0:00:36   58

  iter  continuity  x-velocity  y-velocity      energy           k       omega     time/iter
   943  2.4162e-06  1.8206e-11  4.1064e-12  4.2239e-09  9.3602e-10  6.8767e-06  0:00:35   57
   944  2.4411e-06  1.8152e-11  4.1148e-12  4.2153e-09  9.3660e-10  6.8761e-06  0:00:35   56
   945  2.4438e-06  1.8194e-11  4.1560e-12  4.2136e-09  9.3522e-10  6.8928e-06  0:00:34   55
   946  2.3925e-06  1.8159e-11  4.1056e-12  4.2049e-09  9.3166e-10  6.8765e-06  0:00:33   54
   947  2.4144e-06  1.8081e-11  4.1066e-12  4.1961e-09  9.2754e-10  6.8758e-06  0:00:33   53
   948  2.4308e-06  1.8105e-11  4.1345e-12  4.1931e-09  9.2427e-10  6.8945e-06  0:00:32   52
   949  2.3803e-06  1.8080e-11  4.0857e-12  4.1839e-09  9.2158e-10  6.8756e-06  0:00:31   51
   950  2.4003e-06  1.8002e-11  4.0985e-12  4.1747e-09  9.1968e-10  6.8757e-06  0:00:31   50
   951  2.4105e-06  1.8030e-11  4.1409e-12  4.1723e-09  9.1390e-10  6.9280e-06  0:00:30   49
   952  2.3505e-06  1.7994e-11  4.0862e-12  4.1633e-09  9.1236e-10  6.8702e-06  0:00:30   48
   953  2.3756e-06  1.7923e-11  4.0977e-12  4.1608e-09  9.0879e-10  6.9251e-06  0:00:29   47

  iter  continuity  x-velocity  y-velocity      energy           k       omega     time/iter
   954  2.3693e-06  1.7913e-11  4.0653e-12  4.1508e-09  9.0770e-10  6.8713e-06  0:00:28   46
   955  2.3931e-06  1.7862e-11  4.0737e-12  4.1410e-09  9.0634e-10  6.8718e-06  0:00:28   45
   956  2.3550e-06  1.7903e-11  4.1130e-12  4.1378e-09  9.0492e-10  6.9166e-06  0:00:27   44
   957  2.3329e-06  1.7883e-11  4.0598e-12  4.1284e-09  9.0335e-10  6.8760e-06  0:00:26   43
   958  2.3397e-06  1.7831e-11  4.0799e-12  4.1254e-09  9.0041e-10  6.9060e-06  0:00:26   42
   959  2.3402e-06  1.7829e-11  4.0456e-12  4.1159e-09  9.0385e-10  6.8848e-06  0:00:25   41
   960  2.3617e-06  1.7798e-11  4.0674e-12  4.1066e-09  9.0301e-10  6.8831e-06  0:00:25   40
   961  2.3275e-06  1.7850e-11  4.1127e-12  4.1035e-09  8.9777e-10  6.9060e-06  0:00:24   39
   962  2.3022e-06  1.7816e-11  4.0524e-12  4.0943e-09  8.9755e-10  6.8838e-06  0:00:23   38
   963  2.3106e-06  1.7778e-11  4.0756e-12  4.0915e-09  8.9011e-10  6.8995e-06  0:00:23   37
   964  2.3076e-06  1.7750e-11  4.0287e-12  4.0819e-09  8.8643e-10  6.8894e-06  0:00:22   36

  iter  continuity  x-velocity  y-velocity      energy           k       omega     time/iter
   965  2.2808e-06  1.7698e-11  4.0370e-12  4.0792e-09  8.8231e-10  6.9043e-06  0:00:21   35
   966  2.2977e-06  1.7687e-11  4.0009e-12  4.0699e-09  8.8147e-10  6.8870e-06  0:00:21   34
   967  2.2668e-06  1.7653e-11  4.0093e-12  4.0670e-09  8.7729e-10  6.9181e-06  0:00:20   33
   968  2.2947e-06  1.7643e-11  3.9756e-12  4.0576e-09  8.7832e-10  6.8817e-06  0:00:20   32
   969  2.3222e-06  1.7594e-11  3.9831e-12  4.0484e-09  8.7906e-10  6.8811e-06  0:00:19   31
   970  2.2754e-06  1.7640e-11  4.0206e-12  4.0454e-09  8.7708e-10  6.9199e-06  0:00:18   30
   971  2.2676e-06  1.7615e-11  3.9576e-12  4.0364e-09  8.8499e-10  6.8946e-06  0:00:18   29
   972  2.2820e-06  1.7609e-11  3.9899e-12  4.0340e-09  8.8816e-10  6.8935e-06  0:00:17   28
   973  2.2913e-06  1.7626e-11  3.9603e-12  4.0250e-09  8.8411e-10  6.8997e-06  0:00:17   27
   974  2.2698e-06  1.7568e-11  3.9788e-12  4.0222e-09  8.7958e-10  6.8917e-06  0:00:16   26
   975  2.2941e-06  1.7557e-11  3.9459e-12  4.0130e-09  8.8264e-10  6.9000e-06  0:00:15   25

  iter  continuity  x-velocity  y-velocity      energy           k       omega     time/iter
   976  2.2585e-06  1.7545e-11  3.9702e-12  4.0103e-09  8.7972e-10  6.8917e-06  0:00:15   24
   977  2.2903e-06  1.7531e-11  3.9392e-12  4.0011e-09  8.7849e-10  6.8999e-06  0:00:14   23
   978  2.3154e-06  1.7478e-11  3.9514e-12  3.9919e-09  8.8039e-10  6.8959e-06  0:00:14   22
   979  2.2589e-06  1.7534e-11  4.0021e-12  3.9904e-09  8.8139e-10  6.8990e-06  0:00:13   21
   980  2.2427e-06  1.7507e-11  3.9432e-12  3.9823e-09  8.8276e-10  6.8795e-06  0:00:12   20
   981  2.2564e-06  1.7465e-11  3.9712e-12  3.9804e-09  8.8205e-10  6.9162e-06  0:00:12   19
   982  2.2675e-06  1.7461e-11  3.9511e-12  3.9721e-09  8.8253e-10  6.8857e-06  0:00:11   18
   983  2.3024e-06  1.7402e-11  3.9744e-12  3.9638e-09  8.8399e-10  6.8847e-06  0:00:11   17
   984  2.2587e-06  1.7454e-11  4.0199e-12  3.9617e-09  8.8290e-10  6.9164e-06  0:00:10   16
   985  2.2512e-06  1.7426e-11  3.9738e-12  3.9535e-09  8.8342e-10  6.8856e-06  0:00:09   15
   986  2.2541e-06  1.7367e-11  3.9920e-12  3.9517e-09  8.7986e-10  6.9090e-06  0:00:09   14

  iter  continuity  x-velocity  y-velocity      energy           k       omega     time/iter
   987  2.2653e-06  1.7345e-11  3.9572e-12  3.9433e-09  8.8016e-10  6.8925e-06  0:00:08   13
   988  2.2961e-06  1.7283e-11  3.9702e-12  3.9351e-09  8.7824e-10  6.8908e-06  0:00:07   12
   989  2.2472e-06  1.7298e-11  3.9950e-12  3.9329e-09  8.6949e-10  6.9117e-06  0:00:07   11
   990  2.2368e-06  1.7224e-11  3.9298e-12  3.9246e-09  8.6918e-10  6.8896e-06  0:00:06   10
   991  2.2655e-06  1.7150e-11  3.9293e-12  3.9164e-09  8.6719e-10  6.8886e-06  0:00:06    9
   992  2.2430e-06  1.7163e-11  3.9481e-12  3.9144e-09  8.6548e-10  6.9128e-06  0:00:05    8
   993  2.2392e-06  1.7131e-11  3.8908e-12  3.9056e-09  8.6231e-10  6.8992e-06  0:00:04    7
   994  2.2438e-06  1.7049e-11  3.8833e-12  3.9034e-09  8.5997e-10  6.8909e-06  0:00:04    6
   995  2.2521e-06  1.7032e-11  3.8447e-12  3.8947e-09  8.5832e-10  6.9017e-06  0:00:03    5
   996  2.2727e-06  1.6966e-11  3.8535e-12  3.8862e-09  8.5760e-10  6.8979e-06  0:00:02    4
   997  2.2337e-06  1.6991e-11  3.8961e-12  3.8838e-09  8.5092e-10  6.8999e-06  0:00:02    3

  iter  continuity  x-velocity  y-velocity      energy           k       omega     time/iter
   998  2.2058e-06  1.6922e-11  3.8345e-12  3.8752e-09  8.4751e-10  6.8926e-06  0:00:01    2
   999  2.2112e-06  1.6844e-11  3.8437e-12  3.8731e-09  8.4865e-10  6.8973e-06  0:00:01    1

Adapting mesh...
done.
  1000  2.2563e-06  1.6853e-11  3.8232e-12  3.8646e-09  8.5020e-10  6.8951e-06  0:00:00    0
#t
;

(ti-menu-load-string (format #f "/plot plot yes M2.25_N2_Pres_5222_Pres_170_PBS_5000_Coupled_Steady/axial_pressure yes no no total-pressure yes 1 0 axis ()"))
/plot plot yes M2.25_N2_Pres_5222_Pres_170_PBS_5000_Coupled_Steady/axial_pressure yes no no total-pressure yes 1 0 axis ()#t


> (ti-menu-load-string (format #f "/plot plot yes M2.25_N2_Pres_5222_Pres_170_PBS_5000_Coupled_Steady/axial_mach yes no no mach-number yes 1 0 axis ()"))
/plot plot yes M2.25_N2_Pres_5222_Pres_170_PBS_5000_Coupled_Steady/axial_mach yes no no mach-number yes 1 0 axis ()#t


> (ti-menu-load-string (format #f "/plot plot yes M2.25_N2_Pres_5222_Pres_170_PBS_5000_Coupled_Steady/axial_temperature yes no no temperature yes 1 0 axis ()"))
/plot plot yes M2.25_N2_Pres_5222_Pres_170_PBS_5000_Coupled_Steady/axial_temperature yes no no temperature yes 1 0 axis ()#t


> (ti-menu-load-string (format #f "/plot plot yes M2.25_N2_Pres_5222_Pres_170_PBS_5000_Coupled_Steady/axial_density yes no no density yes 1 0 axis ()"))
/plot plot yes M2.25_N2_Pres_5222_Pres_170_PBS_5000_Coupled_Steady/axial_density yes no no density yes 1 0 axis ()#t


> 
adjoint/                mesh/                   report/
define/                 parallel/               server/
display/                plot/                   solve/
exit                    preferences/            surface/
file/                   print-license-usage     views/

> (ti-menu-load-string (format #f "/file/write-case M2.25_N2_Pres_5222_Pres_170_PBS_5000_Coupled_Steady/CFD_Data.cas y"))
/file/write-case M2.25_N2_Pres_5222_Pres_170_PBS_5000_Coupled_Steady/CFD_Data.cas Fast-loading "/apps/applications/ansys/2023R1/1/default/v231/fluent/fluent23.1.0/addons/afd/lib/hdfio.bin"
Done.

Writing to d13s9b1.arc4.leeds.ac.uk:"/nobackup/scldr/ACRE/M2.25_N2_Pres_5222_Pres_170_PBS_5000_Coupled_Steady/CFD_Data.cas.h5" in NODE0 mode and compression level 1 ...
Grouping cells for Laplace smoothing ...
      608644 cells,     2 zones ...
     1233773 faces,    18 zones ...
      604735 nodes,     1 zone  ...
  Done.

  Writing automatic adaption criteria ...
  Done.
Done.
yinvalid command [y]
#t


> (ti-menu-load-string (format #f "/file/write-data M2.25_N2_Pres_5222_Pres_170_PBS_5000_Coupled_Steady/CFD_Data.dat y"))
/file/write-data M2.25_N2_Pres_5222_Pres_170_PBS_5000_Coupled_Steady/CFD_Data.dat 
Writing to d13s9b1.arc4.leeds.ac.uk:"/nobackup/scldr/ACRE/M2.25_N2_Pres_5222_Pres_170_PBS_5000_Coupled_Steady/CFD_Data.dat.h5" in NODE0 mode and compression level 1 ...
  Writing results.
Done.
yinvalid command [y]
#t


> 
adjoint/                mesh/                   report/
define/                 parallel/               server/
display/                plot/                   solve/
exit                    preferences/            surface/
file/                   print-license-usage     views/

> exit 
Posting ANSYS Product Improvement Program performance data 
Done.
Auto-Transcript Stop Time:  11:02:50, 04 Nov 2023 
Total Transcript Time: 10 Minute 55 Second.

Automatic transcript closed.
