/apps/applications/ansys/2023R1/1/default/v231/fluent/fluent23.1.0/bin/fluent -r23.1.0 -t 40 2ddp -g -i /nobackup/scldr/ACRE/CFD_Macro.scm
/apps/applications/ansys/2023R1/1/default/v231/fluent/fluent23.1.0/cortex/lnamd64/cortex.23.1.0 -f fluent -g -i /nobackup/scldr/ACRE/CFD_Macro.scm (fluent "2ddp -pshmem  -host -r23.1.0 -t40 -mpi=intel -path/apps/applications/ansys/2023R1/1/default/v231/fluent -ssh")

Opening input/output transcript to file "/nobackup/scldr/ACRE/fluent-20231030-181852-233931.trn".
Auto-Transcript Start Time:  18:18:52, 30 Oct 2023 
/apps/applications/ansys/2023R1/1/default/v231/fluent/fluent23.1.0/bin/fluent -r23.1.0 2ddp -pshmem -host -t40 -mpi=intel -path/apps/applications/ansys/2023R1/1/default/v231/fluent -ssh -cx d13s9b2.arc4.leeds.ac.uk:38664:39915
Starting /apps/applications/ansys/2023R1/1/default/v231/fluent/fluent23.1.0/lnamd64/2ddp_host/fluent.23.1.0 host -cx d13s9b2.arc4.leeds.ac.uk:38664:39915 "(list (rpsetvar (QUOTE parallel/function) "fluent 2ddp -flux -node -r23.1.0 -t40 -pshmem -mpi=intel -ssh") (rpsetvar (QUOTE parallel/rhost) "") (rpsetvar (QUOTE parallel/ruser) "") (rpsetvar (QUOTE parallel/nprocs_string) "40") (rpsetvar (QUOTE parallel/auto-spawn?) #t) (rpsetvar (QUOTE parallel/trace-level) 0) (rpsetvar (QUOTE parallel/remote-shell) 1) (rpsetvar (QUOTE parallel/path) "/apps/applications/ansys/2023R1/1/default/v231/fluent") (rpsetvar (QUOTE parallel/hostsfile) "") (rpsetvar (QUOTE gpuapp/devices) ""))"

              Welcome to ANSYS Fluent 2023 R1

              Copyright 1987-2023 ANSYS, Inc. All Rights Reserved.
              Unauthorized use, distribution or duplication is prohibited.
              This product is subject to U.S. laws governing export and re-export.
              For full Legal Notice, see documentation.

Build Time: Nov 28 2022 09:30:44 EST  Build Id: 10208  
 
Connected License Server List:	1055@ansys-research.leeds.ac.uk

     --------------------------------------------------------------
     This is an academic version of ANSYS FLUENT. Usage of this product
     license is limited to the terms and conditions specified in your ANSYS
     license form, additional terms section.
     --------------------------------------------------------------
Host spawning Node 0 on machine "d13s9b2.arc4.leeds.ac.uk" (unix).
/apps/applications/ansys/2023R1/1/default/v231/fluent/fluent23.1.0/bin/fluent -r23.1.0 2ddp -flux -node -t40 -pshmem -mpi=intel -ssh -mport 10.12.170.19:10.12.170.19:36862:0
Starting /apps/applications/ansys/2023R1/1/default/v231/fluent/fluent23.1.0/multiport/mpi/lnamd64/intel2021/bin/mpirun --rsh=ssh -f /tmp/fluent-appfile.scldr.234316 -genv FI_PROVIDER tcp -genv FLUENT_ARCH lnamd64 -genv I_MPI_DEBUG 0 -genv I_MPI_ADJUST_REDUCE 2 -genv I_MPI_ADJUST_ALLREDUCE 2 -genv I_MPI_ADJUST_BCAST 8 -genv I_MPI_ADJUST_BARRIER 2 -genv I_MPI_ADJUST_ALLGATHER 2 -genv I_MPI_ADJUST_GATHER 2 -genv I_MPI_ADJUST_ALLTOALL 1 -genv I_MPI_ADJUST_SCATTER 2 -genv I_MPI_ADJUST_SCATTERV 2 -genv I_MPI_ADJUST_ALLGATHERV 2 -genv I_MPI_ADJUST_GATHERV 2 -genv I_MPI_PLATFORM auto -genv PYTHONHOME /apps/applications/ansys/2023R1/1/default/v231/fluent/fluent23.1.0/../../commonfiles/CPython/3_7/linx64/Release/python -genv FLUENT_PROD_DIR /apps/applications/ansys/2023R1/1/default/v231/fluent/fluent23.1.0 -genv FLUENT_AFFINITY 0 -genv I_MPI_PIN enable -genv KMP_AFFINITY disabled -n 40 /apps/applications/ansys/2023R1/1/default/v231/fluent/fluent23.1.0/lnamd64/2ddp_node/fluent_mpi.23.1.0 node -mpiw intel -pic shmem -mport 10.12.170.19:10.12.170.19:36862:0

-----------------------------------------------------------------------------------------
ID     Hostname              Core   O.S.      PID            Vendor                     
-----------------------------------------------------------------------------------------
n0-39  d13s9b2.arc4.leeds.a  40/40  Linux-64  234369-234408  Intel(R) Xeon(R) Gold 6230 
host   d13s9b2.arc4.leeds.a         Linux-64  234126         Intel(R) Xeon(R) Gold 6230 

MPI Option Selected: intel
Selected system interconnect: shared-memory
-----------------------------------------------------------------------------------------


Initializing SGE
Done.
Cleanup script file is /nobackup/scldr/ACRE/cleanup-fluent-d13s9b2.arc4.leeds.ac.uk-234126.sh

Posting ANSYS Product Improvement Program startup data
Done.

Reading journal file /nobackup/scldr/ACRE/CFD_Macro.scm...

> (ti-menu-load-string (format #f "file/read-case /nobackup/scldr/ACRE/M4_Ar_295K_Pin_4830_Pout_23_Bham_PBS_2000_Iterations/Mesh.msh ok"))
file/read-case /nobackup/scldr/ACRE/M4_Ar_295K_Pin_4830_Pout_23_Bham_PBS_2000_Iterations/Mesh.msh 
Reading "/nobackup/scldr/ACRE/M4_Ar_295K_Pin_4830_Pout_23_Bham_PBS_2000_Iterations/Mesh.msh"...

Buffering for file scan...

 1428659 nodes.
 1425150 quadrilateral cells, zone 14.
 2846792 2D interior faces, zone 15.
      31 2D pressure-inlet faces, zone 16.
     462 2D wall faces, zone 17.
     640 2D wall faces, zone 18.
     488 2D wall faces, zone 19.
    1943 2D wall faces, zone 20.
     652 2D wall faces, zone 21.
    2786 2D axis faces, zone 22.
      14 2D pressure-outlet faces, zone 23.

Building...
     mesh
	auto partitioning mesh by Metis (fast),
	distributing mesh
		parts........................................,
		faces........................................,
		nodes........................................,
		cells........................................,
        bandwidth reduction using Reverse Cuthill-McKee: 32145/208 = 154.543
     materials,
     interface,
     domains,
     zones,
	outlet
	axis
	right_reactor_wall
	top_reactor_wall
	left_reactor_wall
	nozzle_wall
	reservoir_wall
	inlet
	int_fluid
	fluid
     parallel,
Done.
Warning: The use of axis boundary conditions is not appropriate for
         a 2D/3D flow problem. Please consider changing the zone
         type to symmetry or wall, or the problem to axisymmetric.

Warning: The use of axis boundary conditions is not appropriate for
         a 2D/3D flow problem. Please consider changing the zone
         type to symmetry or wall, or the problem to axisymmetric.

okinvalid command [ok]
#t


> (ti-menu-load-string (format #f "/mesh/scale 0.001 0.001"))
/mesh/scale 0.001 0.001#t


> (ti-menu-load-string (format #f "/define/models/axisymmetric yes"))
/define/models/axisymmetric yes#t


> (ti-menu-load-string (format #f "/define/models/solver/pressure-based yes"))
/define/models/solver/pressure-based yes#t
; density-based explicit, pressure-based or density-based-implicit
(ti-menu-load-string (format #f "/define/models/energy yes yes yes"))
/define/models/energy yes yes yes#t
  ; enable energy model?, compute viscout energy dissipation?, Including diffusion at inlets?
(ti-menu-load-string (format #f "/define/models/viscous/kw-sst yes"))
/define/models/viscous/kw-sst yes#t


> (ti-menu-load-string (format #f "(rpsetvar' sst-a1 0.31)"))
(rpsetvar' sst-a1 0.31)
sst-a1
#t
  ; 0.31
(ti-menu-load-string (format #f "(rpsetvar' sst-kappa 0.41)"))
(rpsetvar' sst-kappa 0.41)
sst-kappa
#t
; 0.41
(ti-menu-load-string (format #f "(rpsetvar' sst-beta-i2 0.0828)"))
(rpsetvar' sst-beta-i2 0.0828)
sst-beta-i2
#t
 ; 0.0828
(ti-menu-load-string (format #f "(rpsetvar' sst-beta-i1 0.075)"))
(rpsetvar' sst-beta-i1 0.075)
sst-beta-i1
#t
 ; 0.075
(ti-menu-load-string (format #f "(rpsetvar' sst-sig-w2 1.168)"))
(rpsetvar' sst-sig-w2 1.168)
sst-sig-w2
#t
 ; 1.168
(ti-menu-load-string (format #f "(rpsetvar' sst-sig-w1 2)"))
(rpsetvar' sst-sig-w1 2)
sst-sig-w1
#t
 ; 2
(ti-menu-load-string (format #f "(rpsetvar' sst-sig-k2 1)"))
(rpsetvar' sst-sig-k2 1)
sst-sig-k2
#t
 ; 1
(ti-menu-load-string (format #f "(rpsetvar' sst-sig-k1 1.176)"))
(rpsetvar' sst-sig-k1 1.176)
sst-sig-k1
#t
 ; 1.176
(ti-menu-load-string (format #f "/define/materials/copy fluid argon"))
/define/materials/copy fluid argon
argon copied from database.

#t


> (ti-menu-load-string (format #f "/define/boundary-conditions/fluid fluid yes argon no no no no no no no"))
/define/boundary-conditions/fluid (fluid)
fluid yes argon no no no no no no no#t


> (ti-menu-load-string (format #f "/define/materials delete air"))
/define/materials delete air#t


> (ti-menu-load-string (format #f "/define/materials change-create argon argon yes ideal-gas no no yes sutherland three-coefficient-method 2.125e-05 273.11 144.4 no no no"))
/define/materials change-create argon argon argon is a fluid
yes 
Density
ideal-gas no data required.

no no yes 
Viscosity
sutherland three-coefficient-method 2.125e-05 273.11 144.4 
no no no#t


> (ti-menu-load-string (format #f "/define/models/viscous/turb-compressibility no"))
/define/models/viscous/turb-compressibility no#t
 ; Turning compressbility effects off
(ti-menu-load-string (format #f "/define/boundary-conditions/zone-type inlet pressure-inlet"))
/define/boundary-conditions/zone-type inlet pressure-inlet#t


> (ti-menu-load-string (format #f "/define/boundary-conditions/zone-type outlet pressure-outlet"))
/define/boundary-conditions/zone-type outlet pressure-outlet#t


> (ti-menu-load-string (format #f "/define/boundary-conditions/wall left_reactor_wall 0 no 0 no no no 0 no no no no 0 no 0 no 1"))
/define/boundary-conditions/wall (reservoir_wall nozzle_wall left_reactor_wall top_reactor_wall right_reactor_wall)
left_reactor_wall 0 no 0 no no no 0 no no no no 0 no 0 no 1#t


> (ti-menu-load-string (format #f "/define/boundary-conditions/wall nozzle_wall 0 no 0 no no no 0 no no no no 0 no 0 no 1"))
/define/boundary-conditions/wall (reservoir_wall nozzle_wall left_reactor_wall top_reactor_wall right_reactor_wall)
nozzle_wall 0 no 0 no no no 0 no no no no 0 no 0 no 1#t


> (ti-menu-load-string (format #f "/define/boundary-conditions/wall reservoir_wall 0 no 0 no no no 0 no no no no 0 no 0 no 1"))
/define/boundary-conditions/wall (reservoir_wall nozzle_wall left_reactor_wall top_reactor_wall right_reactor_wall)
reservoir_wall 0 no 0 no no no 0 no no no no 0 no 0 no 1#t


> (ti-menu-load-string (format #f "/define/boundary-conditions/wall top_reactor_wall 0 no 0 no no no 0 no no no no 0 no 0 no 1"))
/define/boundary-conditions/wall (reservoir_wall nozzle_wall left_reactor_wall top_reactor_wall right_reactor_wall)
top_reactor_wall 0 no 0 no no no 0 no no no no 0 no 0 no 1#t


> (ti-menu-load-string (format #f "/define/boundary-conditions/wall right_reactor_wall 0 no 0 no no no 0 no no no no 0 no 0 no 1"))
/define/boundary-conditions/wall (reservoir_wall nozzle_wall left_reactor_wall top_reactor_wall right_reactor_wall)
right_reactor_wall 0 no 0 no no no 0 no no no no 0 no 0 no 1#t


> (ti-menu-load-string (format #f "/define/boundary-conditions/pressure-inlet inlet yes no 4830 no 0 no 295 no yes no no yes 1 1"))
/define/boundary-conditions/pressure-inlet (inlet)
inlet yes no 4830 no 0 no 295 no yes no no yes 1 1#t


> (ti-menu-load-string (format #f "/define/boundary-conditions/pressure-outlet outlet yes no 23.2 no 295 no yes no no yes 1 1 yes no no"))
/define/boundary-conditions/pressure-outlet (outlet)
outlet yes no 23.2 no 295 no yes no no yes 1 1 yes no no#t


> (ti-menu-load-string (format #f "/define/operating-conditions/operating-pressure 0"))
/define/operating-conditions/operating-pressure 0#t
 ; |Value in Pa|
(ti-menu-load-string (format #f "/solve/monitors/residual/convergence-criteria 1e-8 1e-8 1e-8 1e-8 1e-8 1e-8"))
/solve/monitors/residual/convergence-criteria 1e-8 1e-8 1e-8 1e-8 1e-8 1e-8#t


> (ti-menu-load-string (format #f "/solve/set/discretization-scheme/mom 1"))
/solve/set/discretization-scheme/mom 1#t
		; [0 1 4 6] = [First Order, Second Order, QUICK, Third Order]
(ti-menu-load-string (format #f "/solve/set/discretization-scheme/pressure 12"))
/solve/set/discretization-scheme/pressure 12#t
	; [12 10 14 11 13] = [Second, Standard, PRESTO!, Linear, Body Force Weighted]
(ti-menu-load-string (format #f "/solve/set/discretization-scheme/k 1"))
/solve/set/discretization-scheme/k 1#t
		; [0 1 4 6] = [First Order, Second Order, QUICK, Third Order]
(ti-menu-load-string (format #f "/solve/set/discretization-scheme/density 1"))
/solve/set/discretization-scheme/density 1#t
		; [0 1 4 6] = [First Order, Second Order, QUICK, Third Order]
(ti-menu-load-string (format #f "/solve/set/discretization-scheme/omega 1"))
/solve/set/discretization-scheme/omega 1#t
		; [0 1 4 6] = [First Order, Second Order, QUICK, Third Order]
(ti-menu-load-string (format #f "/solve/set/discretization-scheme/temperature 1"))
/solve/set/discretization-scheme/temperature 1#t
	; [0 1 4 6] = [First Order, Second Order, QUICK, Third Order]
(ti-menu-load-string (format #f "/solve/set/flux-type no 0"))
/solve/set/flux-type no 0#t
 				; [0 1], Rhie-Chow Distance, Rhie-Chow momentum
(ti-menu-load-string (format #f "/solve/set/p-v-coupling 24"))
/solve/set/p-v-coupling 24#t
				; [20 21 22 24] = [SIMPLE, SIMPLEC, PISO, Coupled]
(ti-menu-load-string (format #f "/solve/set/warped-face-gradient-correction enable? yes no"))
/solve/set/warped-face-gradient-correction enable? yes  
 Warped-Face Gradient Correction enabled. 
 Options:
 Fast mode 
 Memory saving mode 
no
 Memory saving mode will be used.#t
 ;

;This is just to help convergence, i have left relaxation parameters as default and it seems to converge fine.
(ti-menu-load-string (format #f "/solve/set/high-order-term-relaxation enable? yes"))
/solve/set/high-order-term-relaxation enable? yes#t
; 
; This sets pseudo transient using automating conservative timestepping with a timestep factor of 0.5. This acts as under-relaxation.
(ti-menu-load-string (format #f "/solve/set/pseudo-transient yes yes 1 0.5 0"))
/solve/set/pseudo-transient yes yes 1 0.5 0#t
 ;

; setup report definitions
(ti-menu-load-string (format #f "/solve/report-definitions add max-mach surface-vertexmax field mach-number surface-names axis"))
/solve/report-definitions add max-mach surface-vertexmax field mach-number surface-names axis#t
;
(ti-menu-load-string (format #f "/solve/report-files/add max-mach report-defs max-mach"))
/solve/report-files/add max-mach report-defs max-mach#t
;

(ti-menu-load-string (format #f "/solve/report-definitions add min-temp surface-vertexmin field temperature surface-names axis"))
/solve/report-definitions add min-temp surface-vertexmin field temperature surface-names axis#t
;
(ti-menu-load-string (format #f "/solve/report-files/add min-temp report-defs min-temp"))
/solve/report-files/add min-temp report-defs min-temp#t
;

(ti-menu-load-string (format #f "/solve/report-files/edit max-mach file-name M4_Ar_295K_Pin_4830_Pout_23_Bham_PBS_2000_Iterations/max-mach-convergence.txt"))
/solve/report-files/edit max-mach file-name M4_Ar_295K_Pin_4830_Pout_23_Bham_PBS_2000_Iterations/max-mach-convergence.txt#t


> (ti-menu-load-string (format #f "/solve/report-files/edit min-temp file-name M4_Ar_295K_Pin_4830_Pout_23_Bham_PBS_2000_Iterations/min-temp-convergence.txt"))
/solve/report-files/edit min-temp file-name M4_Ar_295K_Pin_4830_Pout_23_Bham_PBS_2000_Iterations/min-temp-convergence.txt#t


> 
adjoint/                mesh/                   report/
define/                 parallel/               server/
display/                plot/                   solve/
exit                    preferences/            surface/
file/                   print-license-usage     views/

> 
adjoint/                mesh/                   report/
define/                 parallel/               server/
display/                plot/                   solve/
exit                    preferences/            surface/
file/                   print-license-usage     views/

> ; Initialisation settings and number of itterations
(ti-menu-load-string (format #f "/solve/init/hyb-initialization"))
/solve/init/hyb-initialization
Initialize using the hybrid initialization method.

Checking case topology... 
-This case has both inlets & outlets 
-Pressure information is available at the boundaries

	iter		scalar-0		scalar-1

	1		1.000000e+00	1.000000e+00
	2		9.086076e-07	1.151525e-06
	3		1.791866e-07	2.198435e-07
	4		9.332133e-08	6.718152e-08
	5		6.061903e-08	3.788137e-08
	6		4.615817e-08	2.781148e-08
	7		3.665360e-08	2.339489e-08
	8		2.966454e-08	2.012546e-08
	9		2.429874e-08	1.740713e-08
	10		2.005151e-08	1.505593e-08

Hybrid initialization is done.
#t


> (ti-menu-load-string (format #f "solve init fmg y"))
solve init fmg y
Creating multigrid levels... 
 Grid Level  0: 1425150 cells, 2853808 faces, 1428659 nodes;  40 clusters
 Grid Level  1: 358493 cells, 1435499 faces, 1428659 nodes;  40 clusters
 Grid Level  1: 358493 cells, 797555 faces,      0 nodes
 Grid Level  2: 104492 cells, 803290 faces, 1428659 nodes;  40 clusters
 Grid Level  2: 104492 cells, 264855 faces,      0 nodes
 Grid Level  3:  32512 cells, 482208 faces, 1428659 nodes;  40 clusters
 Grid Level  3:  32512 cells,  91171 faces,      0 nodes
 Grid Level  4:  10676 cells, 306775 faces, 1428659 nodes;  40 clusters
 Grid Level  4:  10676 cells,  33243 faces,      0 nodes
 Grid Level  5:   3624 cells, 201307 faces, 1428659 nodes;  40 clusters
 Grid Level  5:   3624 cells,  13347 faces,      0 nodes
Done.


FMG: Converge FAS on level 5


FMG: Converge FAS on level 4


FMG: Converge FAS on level 3


FMG: Converge FAS on level 2


FMG: Converge FAS on level 1
0.
 time step reduced in 182 cells due to excessive temperature change
->1.->2.->3.->4.->5.<<<<<

FMG: Initialize flow for Segregated solution.. . end 
#t


> 
adjoint/                mesh/                   report/
define/                 parallel/               server/
display/                plot/                   solve/
exit                    preferences/            surface/
file/                   print-license-usage     views/

> (ti-menu-load-string (format #f "/mesh/adapt/cell-registers/add yplusrefine type yplus-ystar max-allowed 0.5 min-allowed 0.25 q () q () q ()"))
/mesh/adapt/cell-registers/add yplusrefine type yplus-ystar max-allowed 0.5 min-allowed 0.25 q ()
 q ()
()
 q ()
()
#t


> (ti-menu-load-string (format #f "/mesh/adapt/manage-criteria/add criteria1 type expression refinement-expression \"yplusrefine\" "))
/mesh/adapt/manage-criteria/add criteria1 type expression refinement-expression "yplusrefine" #t


> (ti-menu-load-string (format #f "/mesh/adapt/manage-criteria/edit criteria1 frequency 250"))
/mesh/adapt/manage-criteria/edit criteria1 frequency 250#t


> 
adjoint/                mesh/                   report/
define/                 parallel/               server/
display/                plot/                   solve/
exit                    preferences/            surface/
file/                   print-license-usage     views/

> (ti-menu-load-string (format #f "/mesh/adapt/adapt-mesh"))
/mesh/adapt/adapt-mesh#t


> (ti-menu-load-string (format #f "/solve/iterate 50"))
/solve/iterate 50
  iter  continuity  x-velocity  y-velocity      energy           k       omega     time/iter

Adapting mesh...
done.
     1  1.0000e+00  1.3401e-04  6.4946e-05  1.3240e-04  7.1009e-01  2.4187e-01  0:01:21   49
     2  6.5621e-01  7.6497e-05  4.1635e-05  1.5014e-04  4.8974e-01  1.4335e-01  0:01:11   48
     3  4.6979e-01  5.1680e-05  3.1701e-05  1.2018e-04  2.1482e-01  8.9898e-02  0:01:03   47
     4  3.7428e-01  4.0046e-05  2.7549e-05  1.0155e-04  6.1416e-02  6.5973e-02  0:00:57   46
     5  3.0023e-01  3.3378e-05  2.4528e-05  8.9089e-05  1.4687e-02  8.3850e-02  0:00:52   45
     6  2.4187e-01  2.9074e-05  2.1557e-05  8.1901e-05  4.5837e-03  9.0951e-02  0:00:47   44
     7  2.0711e-01  2.6058e-05  1.7881e-05  7.9334e-05  3.0843e-03  9.6044e-02  0:00:44   43
     8  1.8990e-01  2.3896e-05  1.5133e-05  7.8458e-05  2.9064e-03  8.9691e-02  0:00:41   42
     9  1.9056e-01  2.2163e-05  1.3665e-05  7.7367e-05  2.5348e-03  7.7115e-02  0:00:39   41
    10  1.9071e-01  2.0388e-05  1.2708e-05  7.5077e-05  2.1536e-03  5.8048e-02  0:00:38   40
    11  1.8982e-01  1.8685e-05  1.1839e-05  7.1245e-05  1.8500e-03  3.3806e-02  0:00:36   39

  iter  continuity  x-velocity  y-velocity      energy           k       omega     time/iter
    12  1.8136e-01  1.7078e-05  1.0379e-05  6.6715e-05  1.5808e-03  3.8607e-02  0:00:35   38
    13  1.7714e-01  1.5212e-05  9.0987e-06  6.3816e-05  1.3253e-03  4.5434e-02  0:00:34   37
    14  1.7949e-01  1.3004e-05  7.6816e-06  6.0625e-05  1.0844e-03  4.5047e-02  0:00:32   36
    15  1.8116e-01  1.0945e-05  6.6585e-06  5.6178e-05  8.7705e-04  4.4391e-02  0:00:31   35
    16  1.9476e-01  9.5163e-06  6.4771e-06  5.2937e-05  7.1647e-04  4.2932e-02  0:00:31   34
    17  1.9510e-01  8.1533e-06  5.7167e-06  4.9530e-05  5.9177e-04  4.2308e-02  0:00:30   33
    18  1.9349e-01  6.8780e-06  4.9286e-06  4.4688e-05  4.9496e-04  4.1153e-02  0:00:29   32
    19  1.8582e-01  5.7114e-06  4.0683e-06  4.0294e-05  4.1517e-04  4.0002e-02  0:00:28   31
    20  1.8172e-01  4.7933e-06  3.4451e-06  3.7703e-05  3.5320e-04  4.0326e-02  0:00:28   30
    21  1.7919e-01  4.4327e-06  2.9573e-06  3.5530e-05  3.0693e-04  3.8118e-02  0:00:27   29
    22  1.7692e-01  4.2032e-06  2.5791e-06  3.4030e-05  2.7446e-04  3.6801e-02  0:00:27   28

  iter  continuity  x-velocity  y-velocity      energy           k       omega     time/iter
    23  1.8211e-01  3.9796e-06  2.4997e-06  3.2912e-05  2.4862e-04  3.3258e-02  0:00:27   27
    24  1.7975e-01  3.6411e-06  2.2340e-06  3.1151e-05  2.2415e-04  2.8497e-02  0:00:26   26
    25  1.7715e-01  3.1900e-06  2.0214e-06  2.9219e-05  1.9983e-04  1.8851e-02  0:00:26   25
    26  1.7137e-01  2.7618e-06  1.7090e-06  2.6906e-05  1.7436e-04  1.6515e-02  0:00:25   24
    27  1.6653e-01  2.3456e-06  1.4705e-06  2.4127e-05  1.4877e-04  2.0311e-02  0:00:24   23
    28  1.6326e-01  2.0184e-06  1.2775e-06  2.1833e-05  1.2557e-04  2.2450e-02  0:00:23   22
    29  1.6412e-01  1.7334e-06  1.1897e-06  2.0083e-05  1.0515e-04  2.5788e-02  0:00:22   21
    30  1.6714e-01  1.5081e-06  1.1493e-06  1.8679e-05  8.7271e-05  2.7618e-02  0:00:21   20
    31  1.6655e-01  1.3397e-06  1.0696e-06  1.7022e-05  7.2024e-05  2.6710e-02  0:00:21   19
    32  1.7014e-01  1.2086e-06  1.0470e-06  1.6054e-05  5.9379e-05  2.5634e-02  0:00:20   18
    33  1.6388e-01  1.1013e-06  8.9534e-07  1.4162e-05  4.9793e-05  2.3030e-02  0:00:19   17

  iter  continuity  x-velocity  y-velocity      energy           k       omega     time/iter
    34  1.6071e-01  1.0135e-06  8.1831e-07  1.1852e-05  4.1762e-05  2.1347e-02  0:00:19   16
    35  1.5656e-01  9.4702e-07  7.2301e-07  1.0147e-05  3.5299e-05  1.8493e-02  0:00:18   15
    36  1.5368e-01  8.9788e-07  6.5393e-07  8.8743e-06  3.0445e-05  1.4934e-02  0:00:17   14
    37  1.4938e-01  8.7122e-07  5.8523e-07  7.7574e-06  2.7532e-05  1.2020e-02  0:00:16   13
    38  1.4954e-01  8.6008e-07  5.7272e-07  6.8630e-06  2.5804e-05  1.0460e-02  0:00:15   12
    39  1.5782e-01  8.4296e-07  6.2425e-07  6.6314e-06  2.4622e-05  8.5877e-03  0:00:14   11
    40  1.5340e-01  8.1530e-07  5.6974e-07  5.7068e-06  2.3019e-05  7.2272e-03  0:00:12   10
    41  1.3968e-01  7.8100e-07  5.1224e-07  4.8553e-06  2.1781e-05  6.3341e-03  0:00:11    9
    42  1.3418e-01  7.2013e-07  4.5800e-07  4.2644e-06  2.0568e-05  6.4157e-03  0:00:10    8
    43  1.2815e-01  6.5742e-07  4.1102e-07  3.7179e-06  1.9336e-05  6.8235e-03  0:00:09    7
    44  1.2953e-01  5.9316e-07  4.1047e-07  3.4142e-06  1.8300e-05  7.7106e-03  0:00:08    6

  iter  continuity  x-velocity  y-velocity      energy           k       omega     time/iter
    45  1.3700e-01  5.3535e-07  4.4556e-07  3.4372e-06  1.7348e-05  8.6510e-03  0:00:07    5
    46  1.2880e-01  4.8885e-07  3.8786e-07  3.0494e-06  1.5860e-05  9.0185e-03  0:00:05    4
    47  1.1695e-01  4.3527e-07  3.4453e-07  2.7812e-06  1.4719e-05  8.4169e-03  0:00:04    3
    48  1.1049e-01  3.9339e-07  2.9095e-07  2.6091e-06  1.3713e-05  7.2660e-03  0:00:03    2
    49  1.0701e-01  3.6704e-07  2.7205e-07  2.4605e-06  1.2863e-05  7.6710e-03  0:00:01    1
    50  1.0717e-01  3.5064e-07  2.7507e-07  2.4236e-06  1.2142e-05  8.7115e-03  0:00:00    0
#t


> (ti-menu-load-string (format #f "/mesh/adapt/adapt-mesh"))
/mesh/adapt/adapt-mesh#t


> (ti-menu-load-string (format #f "/solve/iterate 50"))
/solve/iterate 50
  iter  continuity  x-velocity  y-velocity      energy           k       omega     time/iter
    50  1.0717e-01  3.5064e-07  2.7507e-07  2.4236e-06  1.2142e-05  8.7115e-03  0:01:09   50
    51  1.0784e-01  3.4644e-07  2.8082e-07  2.4541e-06  1.1414e-05  8.4484e-03  0:01:07   49
    52  1.0088e-01  3.4740e-07  2.6117e-07  2.3071e-06  1.0527e-05  6.9909e-03  0:01:06   48
    53  9.3629e-02  3.4825e-07  2.3280e-07  2.1867e-06  9.8543e-06  4.4787e-03  0:01:05   47
    54  9.2162e-02  3.4807e-07  2.2808e-07  2.1973e-06  9.4377e-06  5.6370e-03  0:01:04   46
    55  9.2637e-02  3.4876e-07  2.2124e-07  2.1860e-06  9.0985e-06  7.4895e-03  0:01:03   45
    56  9.5174e-02  3.4892e-07  2.2367e-07  2.1749e-06  8.8221e-06  8.8579e-03  0:01:02   44
    57  1.0089e-01  3.4435e-07  2.4431e-07  2.2356e-06  8.4546e-06  9.8850e-03  0:01:00   43
    58  9.9759e-02  3.3845e-07  2.3568e-07  2.1334e-06  8.2230e-06  1.0393e-02  0:00:58   42
    59  9.6997e-02  3.3091e-07  2.2485e-07  2.0109e-06  8.2007e-06  9.8936e-03  0:00:57   41
    60  9.7044e-02  3.2234e-07  2.1727e-07  1.9319e-06  8.3598e-06  8.2246e-03  0:00:56   40

  iter  continuity  x-velocity  y-velocity      energy           k       omega     time/iter
    61  9.4272e-02  3.1109e-07  1.9591e-07  1.8076e-06  8.4064e-06  6.8759e-03  0:00:55   39
    62  9.4317e-02  2.9771e-07  2.0382e-07  1.7161e-06  8.4663e-06  6.3360e-03  0:00:54   38
    63  9.5328e-02  2.8124e-07  2.2035e-07  1.7728e-06  8.6838e-06  6.4045e-03  0:00:52   37
    64  8.8125e-02  2.6626e-07  1.9945e-07  1.6365e-06  8.7108e-06  6.2841e-03  0:00:51   36
    65  8.2727e-02  2.5020e-07  2.0185e-07  1.5915e-06  8.6800e-06  5.8804e-03  0:00:50   35
    66  7.7743e-02  2.3707e-07  1.8659e-07  1.5681e-06  8.6967e-06  5.3165e-03  0:00:49   34
    67  7.4238e-02  2.3193e-07  1.6775e-07  1.4780e-06  8.6823e-06  4.6605e-03  0:00:47   33
    68  7.3463e-02  2.3062e-07  1.7724e-07  1.4512e-06  8.7984e-06  4.0116e-03  0:00:46   32
    69  7.5563e-02  2.3269e-07  2.0317e-07  1.5900e-06  9.0686e-06  3.4754e-03  0:00:44   31
    70  7.2167e-02  2.3472e-07  1.9648e-07  1.5183e-06  8.8467e-06  3.0191e-03  0:00:43   30
    71  6.8440e-02  2.3316e-07  1.8126e-07  1.4361e-06  8.6245e-06  2.7285e-03  0:00:41   29

  iter  continuity  x-velocity  y-velocity      energy           k       omega     time/iter
    72  6.8523e-02  2.3089e-07  1.8356e-07  1.4214e-06  8.3375e-06  2.6205e-03  0:00:40   28
    73  6.6502e-02  2.2289e-07  1.6918e-07  1.3731e-06  8.0771e-06  2.5078e-03  0:00:38   27
    74  6.7831e-02  2.1497e-07  1.7639e-07  1.2841e-06  7.8835e-06  2.5477e-03  0:00:37   26
    75  7.1551e-02  2.0812e-07  2.0196e-07  1.3873e-06  7.7451e-06  2.6234e-03  0:00:35   25
    76  6.7144e-02  2.0100e-07  1.7943e-07  1.2608e-06  7.2153e-06  2.6346e-03  0:00:34   24
    77  6.4770e-02  1.9100e-07  1.7597e-07  1.1368e-06  6.8708e-06  2.5436e-03  0:00:34   23
    78  6.1945e-02  1.8171e-07  1.5783e-07  1.0916e-06  6.4957e-06  2.3069e-03  0:00:32   22
    79  6.1059e-02  1.7195e-07  1.5516e-07  1.0100e-06  6.2347e-06  1.9936e-03  0:00:31   21
    80  6.1785e-02  1.6447e-07  1.6506e-07  9.9062e-07  6.0536e-06  1.6774e-03  0:00:29   20
    81  6.5231e-02  1.5649e-07  1.8393e-07  1.0414e-06  5.8605e-06  1.5923e-03  0:00:27   19
    82  6.2254e-02  1.4896e-07  1.6587e-07  9.3800e-07  5.4228e-06  1.5917e-03  0:00:26   18

  iter  continuity  x-velocity  y-velocity      energy           k       omega     time/iter
    83  5.8857e-02  1.4059e-07  1.4906e-07  8.5154e-07  5.1741e-06  1.5258e-03  0:00:24   17
    84  5.5897e-02  1.3239e-07  1.2982e-07  7.9316e-07  4.9376e-06  1.5882e-03  0:00:23   16
    85  5.5867e-02  1.2618e-07  1.3246e-07  7.6415e-07  4.8783e-06  1.7147e-03  0:00:21   15
    86  5.6369e-02  1.2084e-07  1.2944e-07  7.4285e-07  4.7681e-06  1.8725e-03  0:00:20   14
    87  5.7310e-02  1.1552e-07  1.3775e-07  7.4071e-07  4.7068e-06  1.9981e-03  0:00:18   13
    88  5.4080e-02  1.1186e-07  1.1909e-07  6.7192e-07  4.3257e-06  2.0688e-03  0:00:17   12
    89  5.1376e-02  1.0531e-07  1.0556e-07  6.2206e-07  4.0752e-06  2.1401e-03  0:00:15   11
    90  5.1678e-02  1.0024e-07  1.1822e-07  6.3035e-07  4.0938e-06  2.2308e-03  0:00:14   10
    91  5.0139e-02  9.7712e-08  1.0093e-07  5.9148e-07  3.9141e-06  2.3090e-03  0:00:13    9
    92  5.4289e-02  9.5089e-08  1.3742e-07  6.1839e-07  3.9042e-06  2.3505e-03  0:00:11    8
    93  5.0632e-02  9.3056e-08  1.0912e-07  6.0023e-07  3.5692e-06  2.3832e-03  0:00:10    7

  iter  continuity  x-velocity  y-velocity      energy           k       omega     time/iter
    94  4.9048e-02  8.8122e-08  1.0669e-07  5.4348e-07  3.4538e-06  2.4004e-03  0:00:08    6
    95  4.8032e-02  8.3482e-08  1.0122e-07  5.5039e-07  3.3690e-06  2.3861e-03  0:00:07    5
    96  4.6350e-02  8.0288e-08  8.1334e-08  5.2237e-07  3.0991e-06  2.3143e-03  0:00:06    4
    97  4.8154e-02  7.6429e-08  9.9309e-08  5.2617e-07  3.0528e-06  2.2487e-03  0:00:04    3
    98  4.8408e-02  7.3529e-08  9.8517e-08  5.5534e-07  3.0362e-06  2.2047e-03  0:00:03    2
    99  4.7611e-02  7.1646e-08  9.7351e-08  5.2368e-07  2.8725e-06  2.0807e-03  0:00:01    1
   100  4.6631e-02  6.7706e-08  9.0061e-08  4.7747e-07  2.6617e-06  2.0402e-03  0:00:00    0
#t


> (ti-menu-load-string (format #f "/mesh/adapt/adapt-mesh"))
/mesh/adapt/adapt-mesh#t


> (ti-menu-load-string (format #f "/solve/iterate 50"))
/solve/iterate 50
  iter  continuity  x-velocity  y-velocity      energy           k       omega     time/iter
   100  4.6631e-02  6.7706e-08  9.0061e-08  4.7747e-07  2.6617e-06  2.0402e-03  0:01:05   50
   101  4.5405e-02  6.4283e-08  7.7286e-08  4.6969e-07  2.4773e-06  2.1171e-03  0:01:02   49
   102  4.5573e-02  6.1350e-08  8.3022e-08  4.5964e-07  2.4193e-06  2.0004e-03  0:01:00   48
   103  4.6177e-02  5.8984e-08  8.4665e-08  4.6869e-07  2.4627e-06  1.9461e-03  0:00:58   47
   104  4.7088e-02  5.8330e-08  9.3771e-08  4.9465e-07  2.5167e-06  1.9321e-03  0:00:57   46
   105  4.6150e-02  5.7668e-08  8.6633e-08  4.6796e-07  2.3618e-06  1.8919e-03  0:00:55   45
   106  4.4562e-02  5.6450e-08  7.5304e-08  4.5255e-07  2.2280e-06  1.8969e-03  0:00:54   44
   107  4.4772e-02  5.5560e-08  8.2080e-08  4.6769e-07  2.2897e-06  1.9491e-03  0:00:53   43
   108  4.4472e-02  5.4867e-08  7.3045e-08  4.7305e-07  2.3514e-06  1.9157e-03  0:00:52   42
   109  4.5252e-02  5.5865e-08  8.4081e-08  5.0380e-07  2.4659e-06  1.8848e-03  0:00:52   41
   110  4.4632e-02  5.6634e-08  8.0622e-08  4.8985e-07  2.3768e-06  1.8577e-03  0:00:51   40

  iter  continuity  x-velocity  y-velocity      energy           k       omega     time/iter
   111  4.3423e-02  5.6881e-08  7.5391e-08  4.7664e-07  2.2743e-06  1.8316e-03  0:00:50   39
   112  4.2979e-02  5.6493e-08  7.2537e-08  4.7058e-07  2.3059e-06  1.8471e-03  0:00:50   38
   113  4.3328e-02  5.7944e-08  7.5051e-08  4.8459e-07  2.3980e-06  1.8141e-03  0:00:49   37
   114  4.4021e-02  5.9417e-08  8.7053e-08  5.0460e-07  2.5967e-06  1.8048e-03  0:00:48   36
   115  4.3503e-02  6.1092e-08  8.1876e-08  4.9123e-07  2.4533e-06  1.8033e-03  0:00:47   35
   116  4.2029e-02  6.1311e-08  7.5919e-08  4.7492e-07  2.4079e-06  1.8212e-03  0:00:45   34
   117  4.2384e-02  6.2210e-08  8.1848e-08  4.7187e-07  2.5023e-06  1.8280e-03  0:00:44   33
   118  4.1409e-02  6.3115e-08  7.2234e-08  4.7888e-07  2.6046e-06  1.8293e-03  0:00:43   32
   119  4.3090e-02  6.4640e-08  8.8262e-08  4.8683e-07  2.7781e-06  1.8441e-03  0:00:41   31
   120  4.1528e-02  6.5319e-08  7.6208e-08  4.9859e-07  2.6328e-06  1.8467e-03  0:00:40   30
   121  4.0760e-02  6.6409e-08  7.4912e-08  4.8065e-07  2.6022e-06  1.8584e-03  0:00:38   29

  iter  continuity  x-velocity  y-velocity      energy           k       omega     time/iter
   122  4.0811e-02  6.6465e-08  7.8860e-08  4.9006e-07  2.7262e-06  1.8663e-03  0:00:37   28
   123  4.0823e-02  6.4511e-08  7.2979e-08  5.0198e-07  2.7920e-06  1.8797e-03  0:00:36   27
   124  4.1078e-02  6.4368e-08  7.7335e-08  5.0912e-07  2.8280e-06  1.8813e-03  0:00:34   26
   125  4.0397e-02  6.3492e-08  7.4831e-08  5.1646e-07  2.6970e-06  1.8478e-03  0:00:33   25
   126  3.9136e-02  6.3738e-08  7.1206e-08  5.1523e-07  2.6076e-06  1.8619e-03  0:00:32   24
   127  3.9616e-02  6.3034e-08  7.9148e-08  5.2226e-07  2.6931e-06  1.8650e-03  0:00:30   23
   128  3.9837e-02  6.1467e-08  7.3893e-08  5.1746e-07  2.7400e-06  1.8598e-03  0:00:29   22
   129  3.9834e-02  6.0980e-08  7.6926e-08  5.0673e-07  2.7624e-06  1.8535e-03  0:00:28   21
   130  4.0242e-02  6.0110e-08  8.4163e-08  5.0699e-07  2.6369e-06  1.8429e-03  0:00:26   20
   131  3.8875e-02  6.1224e-08  7.4752e-08  4.8279e-07  2.5704e-06  1.8413e-03  0:00:25   19
   132  3.9050e-02  6.1691e-08  7.6040e-08  4.6145e-07  2.6190e-06  1.8393e-03  0:00:24   18

  iter  continuity  x-velocity  y-velocity      energy           k       omega     time/iter
   133  3.9587e-02  6.1031e-08  7.8912e-08  4.6425e-07  2.8113e-06  1.8615e-03  0:00:23   17
   134  3.8690e-02  6.1226e-08  7.1901e-08  4.4529e-07  2.7656e-06  1.8622e-03  0:00:21   16
   135  3.8848e-02  6.0735e-08  7.8416e-08  4.4746e-07  2.6653e-06  1.8543e-03  0:00:20   15
   136  3.6993e-02  6.1800e-08  6.5148e-08  4.3677e-07  2.5971e-06  1.8425e-03  0:00:18   14
   137  3.7900e-02  6.2740e-08  7.4771e-08  4.3622e-07  2.7763e-06  1.8436e-03  0:00:17   13
   138  3.7429e-02  6.0237e-08  6.4659e-08  4.4460e-07  2.7544e-06  1.8391e-03  0:00:16   12
   139  3.6809e-02  6.0254e-08  6.5200e-08  4.3442e-07  2.5710e-06  1.8323e-03  0:00:14   11
   140  3.6617e-02  5.9902e-08  6.8471e-08  4.5785e-07  2.5113e-06  1.8294e-03  0:00:13   10
   141  3.5860e-02  6.0863e-08  6.4370e-08  4.4682e-07  2.5110e-06  1.8242e-03  0:00:12    9
   142  3.6949e-02  5.9284e-08  7.4427e-08  4.5759e-07  2.6282e-06  1.8206e-03  0:00:10    8
   143  3.5094e-02  5.7761e-08  5.8892e-08  4.5027e-07  2.5048e-06  1.7871e-03  0:00:09    7

  iter  continuity  x-velocity  y-velocity      energy           k       omega     time/iter
   144  3.5987e-02  5.7150e-08  7.1807e-08  4.5047e-07  2.4152e-06  1.7846e-03  0:00:08    6
   145  3.4945e-02  5.7604e-08  6.1230e-08  4.5492e-07  2.3607e-06  1.7869e-03  0:00:06    5
   146  3.6272e-02  5.9276e-08  7.7409e-08  4.4441e-07  2.4641e-06  1.8042e-03  0:00:05    4
   147  3.6121e-02  5.9586e-08  7.1595e-08  4.5791e-07  2.4392e-06  1.7993e-03  0:00:04    3
   148  3.5690e-02  5.9671e-08  6.9866e-08  4.1332e-07  2.3892e-06  1.7919e-03  0:00:03    2
   149  3.5105e-02  5.9736e-08  6.8844e-08  4.2269e-07  2.3210e-06  1.7835e-03  0:00:01    1
   150  3.4491e-02  6.1001e-08  6.5306e-08  4.2138e-07  2.3205e-06  1.7763e-03  0:00:00    0
#t


> (ti-menu-load-string (format #f "/mesh/adapt/adapt-mesh"))
/mesh/adapt/adapt-mesh#t


> (ti-menu-load-string (format #f "/solve/iterate 50"))
/solve/iterate 50
  iter  continuity  x-velocity  y-velocity      energy           k       omega     time/iter
   150  3.4491e-02  6.1001e-08  6.5306e-08  4.2138e-07  2.3205e-06  1.7763e-03  0:01:04   50
   151  3.4403e-02  6.0741e-08  6.3471e-08  4.1511e-07  2.4278e-06  1.7933e-03  0:01:02   49
   152  3.3840e-02  5.9865e-08  5.8546e-08  4.0871e-07  2.3995e-06  1.7902e-03  0:01:01   48
   153  3.3712e-02  5.8783e-08  6.1040e-08  4.2546e-07  2.2962e-06  1.7853e-03  0:01:00   47
   154  3.3660e-02  5.8544e-08  6.9284e-08  4.4864e-07  2.2459e-06  1.7666e-03  0:00:59   46
   155  3.3288e-02  5.8987e-08  6.6104e-08  4.2794e-07  2.2776e-06  1.7609e-03  0:00:58   45
   156  3.3229e-02  5.6750e-08  6.3541e-08  4.2935e-07  2.3260e-06  1.7719e-03  0:00:57   44
   157  3.1805e-02  5.5618e-08  5.2811e-08  4.2265e-07  2.1697e-06  1.7476e-03  0:00:55   43
   158  3.2290e-02  5.4319e-08  6.0361e-08  4.2189e-07  2.1380e-06  1.7419e-03  0:00:54   42
   159  3.2021e-02  5.3849e-08  6.1162e-08  4.3616e-07  2.0840e-06  1.7388e-03  0:00:53   41
   160  3.1926e-02  5.4131e-08  6.1555e-08  4.2588e-07  2.1423e-06  1.7351e-03  0:00:52   40

  iter  continuity  x-velocity  y-velocity      energy           k       omega     time/iter
   161  3.1477e-02  5.2916e-08  5.5644e-08  4.1077e-07  2.1062e-06  1.7354e-03  0:00:51   39
   162  3.0716e-02  5.2502e-08  5.0507e-08  3.9436e-07  1.9942e-06  1.7327e-03  0:00:50   38
   163  3.1038e-02  5.2548e-08  5.6741e-08  3.9902e-07  1.9771e-06  1.7410e-03  0:00:49   37
   164  3.0919e-02  5.3379e-08  5.5793e-08  3.9886e-07  1.9788e-06  1.7243e-03  0:00:47   36
   165  3.0737e-02  5.2829e-08  5.3489e-08  3.7998e-07  2.0441e-06  1.7284e-03  0:00:46   35
   166  2.9982e-02  5.1044e-08  4.6508e-08  3.7151e-07  1.9710e-06  1.7428e-03  0:00:45   34
   167  2.9818e-02  4.9637e-08  4.8300e-08  3.7594e-07  1.9257e-06  1.7388e-03  0:00:44   33
   168  2.9870e-02  4.8490e-08  5.2317e-08  3.8666e-07  1.9047e-06  1.7303e-03  0:00:43   32
   169  2.9803e-02  4.7946e-08  5.2891e-08  3.7975e-07  1.8830e-06  1.7117e-03  0:00:41   31
   170  2.9587e-02  4.6563e-08  4.9473e-08  3.6855e-07  1.8838e-06  1.7108e-03  0:00:40   30
   171  2.8866e-02  4.5035e-08  4.3595e-08  3.6207e-07  1.7846e-06  1.7127e-03  0:00:39   29

  iter  continuity  x-velocity  y-velocity      energy           k       omega     time/iter
   172  2.8513e-02  4.4021e-08  4.2013e-08  3.5389e-07  1.7051e-06  1.7123e-03  0:00:38   28
   173  2.8540e-02  4.3153e-08  4.4707e-08  3.5609e-07  1.6827e-06  1.7098e-03  0:00:36   27
   174  2.8193e-02  4.2806e-08  4.4978e-08  3.5625e-07  1.6493e-06  1.7075e-03  0:00:35   26
   175  2.7974e-02  4.2327e-08  4.2621e-08  3.4644e-07  1.6550e-06  1.7083e-03  0:00:33   25
   176  2.7905e-02  4.1930e-08  4.3750e-08  3.5309e-07  1.6212e-06  1.7042e-03  0:00:32   24
   177  2.7432e-02  4.2105e-08  4.0686e-08  3.5176e-07  1.5517e-06  1.6952e-03  0:00:30   23
   178  2.7064e-02  4.1857e-08  3.7341e-08  3.3424e-07  1.5546e-06  1.7158e-03  0:00:29   22
   179  2.7212e-02  4.1257e-08  3.8922e-08  3.2049e-07  1.5665e-06  1.7170e-03  0:00:28   21
   180  2.6944e-02  4.0842e-08  3.8001e-08  3.3160e-07  1.5429e-06  1.7164e-03  0:00:26   20
   181  2.6528e-02  4.0021e-08  3.4139e-08  3.1719e-07  1.5536e-06  1.7139e-03  0:00:25   19
   182  2.6286e-02  3.8952e-08  3.1710e-08  2.9732e-07  1.5323e-06  1.7102e-03  0:00:24   18

  iter  continuity  x-velocity  y-velocity      energy           k       omega     time/iter
   183  2.5857e-02  3.7526e-08  2.7866e-08  2.9019e-07  1.4772e-06  1.7084e-03  0:00:23   17
   184  2.5862e-02  3.6513e-08  3.0054e-08  2.8933e-07  1.4357e-06  1.7060e-03  0:00:22   16
   185  2.5412e-02  3.5682e-08  2.6581e-08  2.8873e-07  1.3915e-06  1.7015e-03  0:00:20   15
   186  2.5319e-02  3.5200e-08  2.7094e-08  2.7494e-07  1.3872e-06  1.6977e-03  0:00:19   14
   187  2.4979e-02  3.4577e-08  2.5385e-08  2.7723e-07  1.3444e-06  1.6943e-03  0:00:18   13
   188  2.5023e-02  3.4269e-08  2.9358e-08  2.8750e-07  1.3268e-06  1.6923e-03  0:00:16   12
   189  2.4597e-02  3.4042e-08  2.6519e-08  2.8846e-07  1.2937e-06  1.6802e-03  0:00:15   11
   190  2.4515e-02  3.4041e-08  2.6939e-08  2.7497e-07  1.3016e-06  1.6803e-03  0:00:13   10
   191  2.4220e-02  3.3851e-08  2.4842e-08  2.7640e-07  1.2763e-06  1.6965e-03  0:00:12    9
   192  2.3939e-02  3.3973e-08  2.4010e-08  2.7264e-07  1.2560e-06  1.6831e-03  0:00:11    8
   193  2.3749e-02  3.3915e-08  2.3164e-08  2.6814e-07  1.2506e-06  1.6824e-03  0:00:09    7

  iter  continuity  x-velocity  y-velocity      energy           k       omega     time/iter
   194  2.3600e-02  3.3651e-08  2.2568e-08  2.6157e-07  1.2436e-06  1.6965e-03  0:00:08    6
   195  2.3457e-02  3.3318e-08  2.1945e-08  2.5511e-07  1.2430e-06  1.6910e-03  0:00:07    5
   196  2.3308e-02  3.2972e-08  2.1167e-08  2.4884e-07  1.2387e-06  1.6875e-03  0:00:05    4
   197  2.3151e-02  3.2556e-08  2.0443e-08  2.4381e-07  1.2326e-06  1.6759e-03  0:00:04    3
   198  2.2981e-02  3.2140e-08  1.9991e-08  2.4285e-07  1.2275e-06  1.6728e-03  0:00:03    2
   199  2.2800e-02  3.1771e-08  1.9627e-08  2.4422e-07  1.2138e-06  1.6708e-03  0:00:01    1
   200  2.2623e-02  3.1396e-08  1.9351e-08  2.4587e-07  1.1945e-06  1.6644e-03  0:00:00    0
#t


> (ti-menu-load-string (format #f "/mesh/adapt/adapt-mesh"))
/mesh/adapt/adapt-mesh#t


> (ti-menu-load-string (format #f "/solve/iterate 50"))
/solve/iterate 50
  iter  continuity  x-velocity  y-velocity      energy           k       omega     time/iter
   200  2.2623e-02  3.1396e-08  1.9351e-08  2.4587e-07  1.1945e-06  1.6644e-03  0:01:07   50
   201  2.2456e-02  3.1032e-08  1.9261e-08  2.4658e-07  1.1805e-06  1.6610e-03  0:01:05   49
   202  2.2286e-02  3.0687e-08  1.9380e-08  2.4739e-07  1.1697e-06  1.6584e-03  0:01:04   48
   203  2.2113e-02  3.0445e-08  1.9424e-08  2.4751e-07  1.1544e-06  1.6561e-03  0:01:03   47
   204  2.1945e-02  3.0350e-08  1.9375e-08  2.4754e-07  1.1443e-06  1.6540e-03  0:01:02   46
   205  2.1777e-02  3.0420e-08  1.9248e-08  2.4676e-07  1.1438e-06  1.6523e-03  0:01:00   45
   206  2.1619e-02  3.0533e-08  1.9060e-08  2.4461e-07  1.1454e-06  1.6489e-03  0:00:59   44
   207  2.1470e-02  3.0630e-08  1.8721e-08  2.4151e-07  1.1508e-06  1.6469e-03  0:00:58   43
   208  2.1337e-02  3.0596e-08  1.8315e-08  2.3771e-07  1.1498e-06  1.6398e-03  0:00:56   42
   209  2.1212e-02  3.0446e-08  1.7920e-08  2.3307e-07  1.1441e-06  1.6348e-03  0:00:55   41
   210  2.1083e-02  3.0337e-08  1.7576e-08  2.2979e-07  1.1344e-06  1.6317e-03  0:00:54   40

  iter  continuity  x-velocity  y-velocity      energy           k       omega     time/iter
   211  2.0939e-02  3.0323e-08  1.7256e-08  2.2796e-07  1.1298e-06  1.6272e-03  0:00:52   39
   212  2.0789e-02  3.0265e-08  1.6995e-08  2.2783e-07  1.1313e-06  1.6231e-03  0:00:51   38
   213  2.0637e-02  3.0072e-08  1.6810e-08  2.2930e-07  1.1186e-06  1.6181e-03  0:00:50   37
   214  2.0485e-02  2.9691e-08  1.6671e-08  2.3065e-07  1.1079e-06  1.6137e-03  0:00:48   36
   215  2.0331e-02  2.9313e-08  1.6639e-08  2.3155e-07  1.0983e-06  1.6102e-03  0:00:47   35
   216  2.0176e-02  2.8959e-08  1.6642e-08  2.3153e-07  1.0988e-06  1.6060e-03  0:00:46   34
   217  2.0019e-02  2.8738e-08  1.6690e-08  2.3087e-07  1.0842e-06  1.6014e-03  0:00:45   33
   218  1.9865e-02  2.8637e-08  1.6672e-08  2.3019e-07  1.0810e-06  1.6006e-03  0:00:43   32
   219  1.9713e-02  2.8617e-08  1.6529e-08  2.2883e-07  1.0882e-06  1.5977e-03  0:00:42   31
   220  1.9568e-02  2.8654e-08  1.6352e-08  2.2689e-07  1.0917e-06  1.5950e-03  0:00:41   30
   221  1.9438e-02  2.8690e-08  1.6063e-08  2.2414e-07  1.0812e-06  1.5886e-03  0:00:39   29

  iter  continuity  x-velocity  y-velocity      energy           k       omega     time/iter
   222  1.9319e-02  2.8683e-08  1.5754e-08  2.2120e-07  1.0791e-06  1.5868e-03  0:00:38   28
   223  1.9201e-02  2.8657e-08  1.5467e-08  2.1879e-07  1.0753e-06  1.5811e-03  0:00:37   27
   224  1.9073e-02  2.8628e-08  1.5248e-08  2.1738e-07  1.0728e-06  1.5759e-03  0:00:35   26
   225  1.8940e-02  2.8597e-08  1.5146e-08  2.1665e-07  1.0701e-06  1.5725e-03  0:00:34   25
   226  1.8805e-02  2.8473e-08  1.5059e-08  2.1667e-07  1.0567e-06  1.5702e-03  0:00:32   24
   227  1.8672e-02  2.8180e-08  1.4983e-08  2.1707e-07  1.0553e-06  1.5661e-03  0:00:31   23
   228  1.8535e-02  2.7911e-08  1.4975e-08  2.1793e-07  1.0409e-06  1.5625e-03  0:00:30   22
   229  1.8396e-02  2.7593e-08  1.4940e-08  2.1838e-07  1.0407e-06  1.5598e-03  0:00:28   21
   230  1.8258e-02  2.7399e-08  1.4918e-08  2.1793e-07  1.0289e-06  1.5558e-03  0:00:27   20
   231  1.8122e-02  2.7251e-08  1.4873e-08  2.1673e-07  1.0311e-06  1.5532e-03  0:00:26   19
   232  1.7987e-02  2.7202e-08  1.4785e-08  2.1601e-07  1.0315e-06  1.5495e-03  0:00:25   18

  iter  continuity  x-velocity  y-velocity      energy           k       omega     time/iter
   233  1.7858e-02  2.7169e-08  1.4663e-08  2.1477e-07  1.0223e-06  1.5463e-03  0:00:23   17
   234  1.7740e-02  2.7136e-08  1.4472e-08  2.1291e-07  1.0243e-06  1.5427e-03  0:00:22   16
   235  1.7629e-02  2.7150e-08  1.4249e-08  2.1123e-07  1.0231e-06  1.5391e-03  0:00:20   15
   236  1.7516e-02  2.7122e-08  1.4033e-08  2.0983e-07  1.0103e-06  1.5363e-03  0:00:19   14
   237  1.7398e-02  2.7076e-08  1.3875e-08  2.0876e-07  1.0085e-06  1.5323e-03  0:00:18   13
   238  1.7277e-02  2.7027e-08  1.3810e-08  2.0797e-07  9.9833e-07  1.5295e-03  0:00:16   12
   239  1.7156e-02  2.6917e-08  1.3749e-08  2.0745e-07  9.8881e-07  1.5247e-03  0:00:15   11
   240  1.7034e-02  2.6756e-08  1.3701e-08  2.0707e-07  9.8048e-07  1.5207e-03  0:00:14   10
   241  1.6913e-02  2.6573e-08  1.3637e-08  2.0692e-07  9.7422e-07  1.5177e-03  0:00:12    9
   242  1.6793e-02  2.6400e-08  1.3578e-08  2.0670e-07  9.6933e-07  1.5154e-03  0:00:11    8
   243  1.6674e-02  2.6273e-08  1.3498e-08  2.0626e-07  9.6362e-07  1.5105e-03  0:00:10    7

  iter  continuity  x-velocity  y-velocity      energy           k       omega     time/iter
   244  1.6555e-02  2.6180e-08  1.3410e-08  2.0531e-07  9.6991e-07  1.5065e-03  0:00:08    6
   245  1.6439e-02  2.6149e-08  1.3331e-08  2.0461e-07  9.7330e-07  1.5046e-03  0:00:07    5
   246  1.6326e-02  2.6090e-08  1.3223e-08  2.0399e-07  9.6605e-07  1.4995e-03  0:00:05    4
   247  1.6216e-02  2.6030e-08  1.3078e-08  2.0279e-07  9.5750e-07  1.4965e-03  0:00:04    3
   248  1.6109e-02  2.5991e-08  1.2918e-08  2.0148e-07  9.5996e-07  1.4927e-03  0:00:03    2
   249  1.6002e-02  2.5995e-08  1.2803e-08  2.0046e-07  9.4939e-07  1.4887e-03  0:00:01    1

>> Dividing domain into 40 partitions using Metis.
   Time = 0.0871699 seconds.
   Done.

>> 40 Stored Partitions:
   ----------------------------------------------------------------------
   Collective Partition Statistics:        Minimum   Maximum   Total     
   ----------------------------------------------------------------------
   Cell count                              37169     37320     1489719   
   Mean cell count deviation               -0.2%     0.2%      
   Partition boundary cell count           265       950       27344     
   Partition boundary cell count ratio     0.7%      2.6%      1.8%      

   Face count                              74881     76371     2994274   
   Mean face count deviation               -0.5%     1.4%      
   Partition boundary face count           313       1164      17080     
   Partition boundary face count ratio     0.4%      1.6%      0.6%      

   Cell weights                            3e+05     4e+05     1e+07     
   Mean cell weight deviation              -11.6%    3.7%      

   Partition neighbor count                1         7         
   ----------------------------------------------------------------------
   Partition Method                        Metis                                
   Stored Partition Count                  40                                   
Done.

Adapting mesh...
done.
   250  2.2445e-02  5.4582e-07  1.4397e-07  6.4747e-07  1.3839e-06  1.2674e-01  0:00:00    0
#t


> (ti-menu-load-string (format #f "/mesh/adapt/adapt-mesh"))
/mesh/adapt/adapt-mesh#t


> 
adjoint/                mesh/                   report/
define/                 parallel/               server/
display/                plot/                   solve/
exit                    preferences/            surface/
file/                   print-license-usage     views/

> (ti-menu-load-string (format #f "/solve/iterate 1750"))
/solve/iterate 1750
  iter  continuity  x-velocity  y-velocity      energy           k       omega     time/iter
   250  2.2445e-02  5.4582e-07  1.4397e-07  6.4747e-07  1.3839e-06  1.2674e-01  0:46:36 1750
   251  1.9574e-02  2.8148e-07  7.5933e-08  4.7174e-07  1.1683e-06  2.4402e-02  0:42:23 1749
   252  1.7636e-02  1.5892e-07  4.4917e-08  3.5512e-07  9.3338e-07  6.6397e-03  0:40:12 1748
   253  1.6707e-02  9.6526e-08  3.0363e-08  2.8495e-07  9.1129e-07  2.8521e-03  0:39:16 1747
   254  1.6273e-02  6.4570e-08  2.3406e-08  2.4560e-07  8.9961e-07  2.1252e-03  0:38:52 1746
   255  1.5968e-02  4.8019e-08  1.9474e-08  2.2270e-07  9.1533e-07  1.7789e-03  0:38:54 1745
   256  1.5687e-02  3.9520e-08  1.7376e-08  2.1028e-07  9.2314e-07  1.6644e-03  0:39:12 1744
   257  1.5447e-02  3.4966e-08  1.6055e-08  2.0307e-07  9.4981e-07  1.5127e-03  0:39:35 1743
   258  1.5238e-02  3.2650e-08  1.5226e-08  1.9841e-07  9.7006e-07  1.4558e-03  0:39:53 1742
   259  1.5052e-02  3.1379e-08  1.4579e-08  1.9556e-07  9.8282e-07  1.4278e-03  0:40:08 1741
   260  1.4880e-02  3.0665e-08  1.4090e-08  1.9390e-07  9.9036e-07  1.4093e-03  0:40:12 1740

  iter  continuity  x-velocity  y-velocity      energy           k       omega     time/iter
   261  1.4721e-02  3.0230e-08  1.3705e-08  1.9294e-07  9.9469e-07  1.3956e-03  0:40:14 1739
   262  1.4576e-02  2.9947e-08  1.3389e-08  1.9211e-07  9.8185e-07  1.3804e-03  0:40:20 1738
   263  1.4438e-02  2.9704e-08  1.3111e-08  1.9127e-07  9.8425e-07  1.3692e-03  0:40:20 1737
   264  1.4310e-02  2.9547e-08  1.2945e-08  1.9050e-07  9.8440e-07  1.3557e-03  0:40:24 1736
   265  1.4187e-02  2.9335e-08  1.2844e-08  1.8984e-07  9.7920e-07  1.3413e-03  0:40:29 1735
   266  1.4070e-02  2.9062e-08  1.2773e-08  1.8889e-07  9.7193e-07  1.3277e-03  0:40:29 1734
   267  1.3959e-02  2.8801e-08  1.2717e-08  1.8824e-07  9.5196e-07  1.3095e-03  0:40:24 1733
   268  1.3850e-02  2.8452e-08  1.2601e-08  1.8730e-07  9.4458e-07  1.2970e-03  0:40:23 1732
   269  1.3744e-02  2.8143e-08  1.2531e-08  1.8656e-07  9.3503e-07  1.2848e-03  0:40:20 1731
   270  1.3640e-02  2.7768e-08  1.2448e-08  1.8531e-07  9.1577e-07  1.2790e-03  0:40:15 1730
   271  1.3539e-02  2.7359e-08  1.2328e-08  1.8441e-07  8.9823e-07  1.2634e-03  0:40:10 1729

  iter  continuity  x-velocity  y-velocity      energy           k       omega     time/iter
   272  1.3438e-02  2.6955e-08  1.2183e-08  1.8344e-07  8.8380e-07  1.2539e-03  0:40:10 1728
   273  1.3337e-02  2.6555e-08  1.2029e-08  1.8237e-07  8.8304e-07  1.2461e-03  0:40:17 1727
   274  1.3237e-02  2.6167e-08  1.1902e-08  1.8145e-07  8.7079e-07  1.2391e-03  0:40:45 1726
   275  1.3140e-02  2.5707e-08  1.1747e-08  1.8011e-07  8.6923e-07  1.2324e-03  0:40:37 1725
   276  1.3043e-02  2.5291e-08  1.1623e-08  1.7899e-07  8.5768e-07  1.2268e-03  0:40:23 1724
   277  1.2947e-02  2.4837e-08  1.1473e-08  1.7760e-07  8.5713e-07  1.2216e-03  0:40:17 1723
   278  1.2852e-02  2.4431e-08  1.1355e-08  1.7640e-07  8.5665e-07  1.2166e-03  0:40:09 1722
   279  1.2760e-02  2.4021e-08  1.1254e-08  1.7540e-07  8.5252e-07  1.2121e-03  0:40:02 1721
   280  1.2669e-02  2.3620e-08  1.1154e-08  1.7446e-07  8.4796e-07  1.2074e-03  0:40:02 1720
   281  1.2577e-02  2.3220e-08  1.1055e-08  1.7335e-07  8.4180e-07  1.2077e-03  0:40:02 1719
   282  1.2488e-02  2.2837e-08  1.0959e-08  1.7230e-07  8.3434e-07  1.2024e-03  0:39:57 1718

  iter  continuity  x-velocity  y-velocity      energy           k       omega     time/iter
   283  1.2401e-02  2.2470e-08  1.0863e-08  1.7155e-07  8.3098e-07  1.1949e-03  0:40:01 1717
   284  1.2312e-02  2.2128e-08  1.0764e-08  1.7064e-07  8.2654e-07  1.1959e-03  0:40:00 1716
   285  1.2225e-02  2.1814e-08  1.0688e-08  1.6978e-07  8.1140e-07  1.1936e-03  0:39:54 1715
   286  1.2140e-02  2.1503e-08  1.0566e-08  1.6916e-07  8.0806e-07  1.1879e-03  0:39:49 1714
   287  1.2055e-02  2.1270e-08  1.0480e-08  1.6851e-07  8.0393e-07  1.1866e-03  0:39:46 1713
   288  1.1968e-02  2.1053e-08  1.0397e-08  1.6768e-07  7.9884e-07  1.1884e-03  0:39:47 1712
   289  1.1885e-02  2.0859e-08  1.0310e-08  1.6706e-07  7.9640e-07  1.1838e-03  0:39:46 1711
   290  1.1801e-02  2.0702e-08  1.0241e-08  1.6631e-07  7.9361e-07  1.1842e-03  0:39:45 1710
   291  1.1718e-02  2.0566e-08  1.0172e-08  1.6561e-07  7.9073e-07  1.1824e-03  0:39:42 1709
   292  1.1637e-02  2.0451e-08  1.0100e-08  1.6516e-07  7.7869e-07  1.1785e-03  0:39:37 1708
   293  1.1556e-02  2.0334e-08  9.9955e-09  1.6458e-07  7.6960e-07  1.1770e-03  0:39:32 1707

  iter  continuity  x-velocity  y-velocity      energy           k       omega     time/iter
   294  1.1474e-02  2.0262e-08  9.8842e-09  1.6384e-07  7.7244e-07  1.1756e-03  0:39:31 1706
   295  1.1394e-02  2.0253e-08  9.8323e-09  1.6325e-07  7.7373e-07  1.1743e-03  0:39:33 1705
   296  1.1312e-02  2.0239e-08  9.7797e-09  1.6259e-07  7.6607e-07  1.1747e-03  0:39:30 1704
   297  1.1234e-02  2.0226e-08  9.6931e-09  1.6207e-07  7.6008e-07  1.1688e-03  0:39:24 1703
   298  1.1155e-02  2.0247e-08  9.6133e-09  1.6144e-07  7.6503e-07  1.1665e-03  0:39:24 1702
   299  1.1077e-02  2.0309e-08  9.5929e-09  1.6092e-07  7.5936e-07  1.1643e-03  0:39:24 1701
   300  1.0998e-02  2.0351e-08  9.5327e-09  1.6021e-07  7.5250e-07  1.1637e-03  0:39:22 1700
   301  1.0920e-02  2.0426e-08  9.4636e-09  1.5959e-07  7.6050e-07  1.1598e-03  0:39:21 1699
   302  1.0845e-02  2.0549e-08  9.4592e-09  1.5940e-07  7.6349e-07  1.1529e-03  0:39:26 1698
   303  1.0767e-02  2.0637e-08  9.4594e-09  1.5890e-07  7.6412e-07  1.1525e-03  0:39:25 1697
   304  1.0691e-02  2.0726e-08  9.4460e-09  1.5856e-07  7.6443e-07  1.1475e-03  0:39:24 1696

  iter  continuity  x-velocity  y-velocity      energy           k       omega     time/iter
   305  1.0616e-02  2.0822e-08  9.4323e-09  1.5820e-07  7.6385e-07  1.1433e-03  0:39:26 1695
   306  1.0542e-02  2.0900e-08  9.4247e-09  1.5774e-07  7.6129e-07  1.1386e-03  0:39:28 1694
   307  1.0467e-02  2.0979e-08  9.4120e-09  1.5743e-07  7.6134e-07  1.1334e-03  0:39:31 1693
   308  1.0393e-02  2.1058e-08  9.4064e-09  1.5693e-07  7.5950e-07  1.1287e-03  0:39:32 1692
   309  1.0319e-02  2.1123e-08  9.3936e-09  1.5652e-07  7.4488e-07  1.1240e-03  0:39:33 1691
   310  1.0245e-02  2.1146e-08  9.3224e-09  1.5597e-07  7.4578e-07  1.1186e-03  0:39:29 1690
   311  1.0172e-02  2.1227e-08  9.3110e-09  1.5575e-07  7.4436e-07  1.1114e-03  0:39:27 1689
   312  1.0098e-02  2.1251e-08  9.3022e-09  1.5517e-07  7.4093e-07  1.1089e-03  0:39:28 1688
   313  1.0024e-02  2.1275e-08  9.2839e-09  1.5463e-07  7.2943e-07  1.1041e-03  0:39:26 1687
   314  9.9509e-03  2.1257e-08  9.2247e-09  1.5398e-07  7.2990e-07  1.0981e-03  0:39:23 1686
   315  9.8779e-03  2.1283e-08  9.2010e-09  1.5352e-07  7.2770e-07  1.0926e-03  0:39:22 1685

  iter  continuity  x-velocity  y-velocity      energy           k       omega     time/iter
   316  9.8052e-03  2.1250e-08  9.1760e-09  1.5291e-07  7.2550e-07  1.0866e-03  0:39:57 1684
   317  9.7325e-03  2.1217e-08  9.1478e-09  1.5247e-07  7.2209e-07  1.0814e-03  0:39:53 1683
   318  9.6600e-03  2.1162e-08  9.1140e-09  1.5188e-07  7.1810e-07  1.0754e-03  0:39:43 1682
   319  9.5881e-03  2.1089e-08  9.0841e-09  1.5134e-07  7.0583e-07  1.0698e-03  0:39:35 1681
   320  9.5167e-03  2.0985e-08  9.0066e-09  1.5069e-07  7.0353e-07  1.0640e-03  0:39:28 1680
   321  9.4456e-03  2.0901e-08  8.9643e-09  1.5006e-07  6.9992e-07  1.0584e-03  0:39:24 1679
   322  9.3742e-03  2.0796e-08  8.9303e-09  1.4956e-07  6.9558e-07  1.0531e-03  0:39:20 1678
   323  9.3034e-03  2.0671e-08  8.8835e-09  1.4905e-07  6.9148e-07  1.0474e-03  0:39:18 1677
   324  9.2331e-03  2.0530e-08  8.8441e-09  1.4846e-07  6.8645e-07  1.0419e-03  0:39:15 1676
   325  9.1629e-03  2.0389e-08  8.8060e-09  1.4786e-07  6.8076e-07  1.0365e-03  0:39:09 1675
   326  9.0933e-03  2.0239e-08  8.7678e-09  1.4730e-07  6.6594e-07  1.0305e-03  0:39:07 1674

  iter  continuity  x-velocity  y-velocity      energy           k       omega     time/iter
   327  9.0240e-03  2.0061e-08  8.6818e-09  1.4650e-07  6.6309e-07  1.0254e-03  0:39:00 1673
   328  8.9557e-03  1.9929e-08  8.6422e-09  1.4614e-07  6.6026e-07  1.0184e-03  0:38:57 1672
   329  8.8861e-03  1.9766e-08  8.6050e-09  1.4551e-07  6.4809e-07  1.0157e-03  0:38:56 1671
   330  8.8174e-03  1.9581e-08  8.5202e-09  1.4467e-07  6.3869e-07  1.0109e-03  0:38:49 1670
   331  8.7499e-03  1.9425e-08  8.4374e-09  1.4414e-07  6.3989e-07  1.0040e-03  0:38:51 1669
   332  8.6821e-03  1.9278e-08  8.3991e-09  1.4368e-07  6.3015e-07  9.9964e-04  0:38:49 1668
   333  8.6137e-03  1.9095e-08  8.3279e-09  1.4280e-07  6.2992e-07  9.9687e-04  0:38:48 1667
   334  8.5466e-03  1.8966e-08  8.2949e-09  1.4213e-07  6.2235e-07  9.9206e-04  0:38:50 1666
   335  8.4799e-03  1.8806e-08  8.2293e-09  1.4141e-07  6.2385e-07  9.8735e-04  0:38:43 1665
   336  8.4146e-03  1.8679e-08  8.1987e-09  1.4110e-07  6.1667e-07  9.8059e-04  0:38:40 1664
   337  8.3484e-03  1.8509e-08  8.1427e-09  1.4044e-07  6.1906e-07  9.7853e-04  0:38:41 1663

  iter  continuity  x-velocity  y-velocity      energy           k       omega     time/iter
   338  8.2830e-03  1.8398e-08  8.1227e-09  1.3997e-07  6.1230e-07  9.7390e-04  0:38:41 1662
   339  8.2182e-03  1.8246e-08  8.0673e-09  1.3932e-07  6.1470e-07  9.6970e-04  0:38:39 1661
   340  8.1542e-03  1.8136e-08  8.0550e-09  1.3883e-07  6.1419e-07  9.6530e-04  0:38:36 1660
   341  8.0901e-03  1.8017e-08  8.0389e-09  1.3843e-07  6.1306e-07  9.6109e-04  0:38:35 1659
   342  8.0267e-03  1.7900e-08  8.0159e-09  1.3787e-07  6.0297e-07  9.5656e-04  0:38:36 1658
   343  7.9634e-03  1.7769e-08  7.9555e-09  1.3725e-07  6.0166e-07  9.5291e-04  0:38:31 1657
   344  7.9014e-03  1.7687e-08  7.9209e-09  1.3699e-07  6.0049e-07  9.4706e-04  0:38:32 1656
   345  7.8384e-03  1.7589e-08  7.8889e-09  1.3652e-07  5.9818e-07  9.4506e-04  0:38:35 1655
   346  7.7763e-03  1.7496e-08  7.8587e-09  1.3599e-07  5.9621e-07  9.4098e-04  0:38:35 1654
   347  7.7147e-03  1.7414e-08  7.8301e-09  1.3551e-07  5.9361e-07  9.3670e-04  0:38:34 1653
   348  7.6537e-03  1.7335e-08  7.7902e-09  1.3500e-07  5.8290e-07  9.3258e-04  0:38:26 1652

  iter  continuity  x-velocity  y-velocity      energy           k       omega     time/iter
   349  7.5936e-03  1.7238e-08  7.7106e-09  1.3451e-07  5.8242e-07  9.2701e-04  0:38:23 1651
   350  7.5334e-03  1.7181e-08  7.6674e-09  1.3417e-07  5.8135e-07  9.2303e-04  0:38:24 1650
   351  7.4724e-03  1.7114e-08  7.6216e-09  1.3349e-07  5.7969e-07  9.2046e-04  0:38:24 1649
   352  7.4133e-03  1.7055e-08  7.5753e-09  1.3313e-07  5.7767e-07  9.1467e-04  0:38:29 1648
   353  7.3533e-03  1.6993e-08  7.5302e-09  1.3248e-07  5.6720e-07  9.1182e-04  0:38:26 1647
   354  7.2947e-03  1.6920e-08  7.4529e-09  1.3199e-07  5.6657e-07  9.0609e-04  0:38:18 1646
   355  7.2362e-03  1.6888e-08  7.4071e-09  1.3156e-07  5.6561e-07  9.0152e-04  0:38:26 1645
   356  7.1772e-03  1.6835e-08  7.3659e-09  1.3093e-07  5.5739e-07  8.9812e-04  0:38:18 1644
   357  7.1198e-03  1.6767e-08  7.2950e-09  1.3046e-07  5.5614e-07  8.9218e-04  0:38:17 1643
   358  7.0623e-03  1.6725e-08  7.2443e-09  1.3000e-07  5.5510e-07  8.8703e-04  0:38:14 1642
   359  7.0049e-03  1.6681e-08  7.1989e-09  1.2960e-07  5.5420e-07  8.8231e-04  0:39:16 1641

  iter  continuity  x-velocity  y-velocity      energy           k       omega     time/iter
   360  6.9472e-03  1.6634e-08  7.1526e-09  1.2906e-07  5.5192e-07  8.7859e-04  0:39:01 1640
   361  6.8910e-03  1.6586e-08  7.1071e-09  1.2867e-07  5.4880e-07  8.7234e-04  0:38:46 1639
   362  6.8346e-03  1.6535e-08  7.0544e-09  1.2831e-07  5.4673e-07  8.6735e-04  0:38:35 1638
   363  6.7788e-03  1.6477e-08  7.0051e-09  1.2792e-07  5.4468e-07  8.6230e-04  0:38:28 1637
   364  6.7225e-03  1.6419e-08  6.9542e-09  1.2730e-07  5.4216e-07  8.5823e-04  0:38:18 1636
   365  6.6676e-03  1.6367e-08  6.9093e-09  1.2688e-07  5.3899e-07  8.5173e-04  0:38:12 1635
   366  6.6127e-03  1.6306e-08  6.8647e-09  1.2647e-07  5.3672e-07  8.4681e-04  0:38:08 1634
   367  6.5579e-03  1.6246e-08  6.8227e-09  1.2610e-07  5.2785e-07  8.4161e-04  0:38:01 1633
   368  6.5036e-03  1.6161e-08  6.7616e-09  1.2554e-07  5.2745e-07  8.3667e-04  0:37:55 1632
   369  6.4494e-03  1.6110e-08  6.7218e-09  1.2509e-07  5.2003e-07  8.3160e-04  0:37:51 1631
   370  6.3954e-03  1.6027e-08  6.6603e-09  1.2458e-07  5.2032e-07  8.2609e-04  0:37:54 1630

  iter  continuity  x-velocity  y-velocity      energy           k       omega     time/iter
   371  6.3417e-03  1.5970e-08  6.6219e-09  1.2410e-07  5.1371e-07  8.2098e-04  0:37:47 1629
   372  6.2882e-03  1.5884e-08  6.5602e-09  1.2353e-07  5.0899e-07  8.1582e-04  0:37:43 1628
   373  6.2347e-03  1.5818e-08  6.4995e-09  1.2299e-07  5.0671e-07  8.1083e-04  0:37:40 1627
   374  6.1817e-03  1.5755e-08  6.4451e-09  1.2251e-07  5.1075e-07  8.0600e-04  0:37:36 1626
   375  6.1292e-03  1.5703e-08  6.4246e-09  1.2217e-07  5.0590e-07  8.0053e-04  0:37:34 1625
   376  6.0768e-03  1.5616e-08  6.3747e-09  1.2176e-07  5.0900e-07  7.9545e-04  0:37:33 1624
   377  6.0249e-03  1.5557e-08  6.3522e-09  1.2135e-07  5.0403e-07  7.9003e-04  0:37:34 1623
   378  5.9730e-03  1.5466e-08  6.3018e-09  1.2092e-07  5.0553e-07  7.8505e-04  0:37:33 1622
   379  5.9217e-03  1.5404e-08  6.2850e-09  1.2051e-07  4.9994e-07  7.8000e-04  0:37:28 1621
   380  5.8706e-03  1.5310e-08  6.2376e-09  1.2009e-07  4.9611e-07  7.7519e-04  0:37:26 1620
   381  5.8198e-03  1.5233e-08  6.2002e-09  1.1965e-07  4.9348e-07  7.7003e-04  0:37:27 1619

  iter  continuity  x-velocity  y-velocity      energy           k       omega     time/iter
   382  5.7693e-03  1.5158e-08  6.1679e-09  1.1927e-07  4.8844e-07  7.6486e-04  0:37:22 1618
   383  5.7191e-03  1.5072e-08  6.1252e-09  1.1886e-07  4.9245e-07  7.5992e-04  0:37:21 1617
   384  5.6694e-03  1.5016e-08  6.1101e-09  1.1857e-07  4.9463e-07  7.5496e-04  0:37:19 1616
   385  5.6198e-03  1.4938e-08  6.1022e-09  1.1831e-07  4.9501e-07  7.5015e-04  0:37:18 1615
   386  5.5703e-03  1.4853e-08  6.0887e-09  1.1801e-07  4.8930e-07  7.4521e-04  0:37:16 1614
   387  5.5213e-03  1.4754e-08  6.0526e-09  1.1759e-07  4.9010e-07  7.4003e-04  0:37:13 1613
   388  5.4727e-03  1.4681e-08  6.0376e-09  1.1726e-07  4.9006e-07  7.3541e-04  0:37:14 1612
   389  5.4244e-03  1.4595e-08  6.0235e-09  1.1694e-07  4.8859e-07  7.3040e-04  0:37:13 1611
   390  5.3764e-03  1.4504e-08  6.0028e-09  1.1655e-07  4.8087e-07  7.2584e-04  0:37:11 1610
   391  5.3287e-03  1.4400e-08  5.9549e-09  1.1608e-07  4.7350e-07  7.2085e-04  0:37:08 1609
   392  5.2813e-03  1.4311e-08  5.9075e-09  1.1553e-07  4.6899e-07  7.1628e-04  0:37:06 1608

  iter  continuity  x-velocity  y-velocity      energy           k       omega     time/iter
   393  5.2342e-03  1.4232e-08  5.8635e-09  1.1507e-07  4.7043e-07  7.1162e-04  0:37:05 1607
   394  5.1876e-03  1.4163e-08  5.8403e-09  1.1465e-07  4.7105e-07  7.0663e-04  0:37:08 1606
   395  5.1409e-03  1.4079e-08  5.8160e-09  1.1428e-07  4.7055e-07  7.0184e-04  0:37:09 1605
   396  5.0946e-03  1.3996e-08  5.7874e-09  1.1396e-07  4.6913e-07  6.9719e-04  0:37:07 1604
   397  5.0485e-03  1.3909e-08  5.7502e-09  1.1357e-07  4.6625e-07  6.9240e-04  0:37:06 1603
   398  5.0028e-03  1.3827e-08  5.7170e-09  1.1318e-07  4.6281e-07  6.8753e-04  0:37:08 1602
   399  4.9575e-03  1.3743e-08  5.6848e-09  1.1275e-07  4.5933e-07  6.8263e-04  0:37:10 1601
   400  4.9125e-03  1.3662e-08  5.6491e-09  1.1231e-07  4.5035e-07  6.7806e-04  0:37:07 1600
   401  4.8676e-03  1.3563e-08  5.5888e-09  1.1181e-07  4.4434e-07  6.7302e-04  0:37:04 1599
   402  4.8233e-03  1.3487e-08  5.5363e-09  1.1131e-07  4.3930e-07  6.6825e-04  0:37:51 1598
   403  4.7793e-03  1.3408e-08  5.4896e-09  1.1078e-07  4.3488e-07  6.6336e-04  0:37:40 1597

  iter  continuity  x-velocity  y-velocity      energy           k       omega     time/iter
   404  4.7353e-03  1.3329e-08  5.4399e-09  1.1028e-07  4.3655e-07  6.5873e-04  0:37:32 1596
   405  4.6918e-03  1.3269e-08  5.4081e-09  1.0993e-07  4.3620e-07  6.5421e-04  0:37:22 1595
   406  4.6487e-03  1.3197e-08  5.3784e-09  1.0954e-07  4.3542e-07  6.4926e-04  0:37:17 1594
   407  4.6058e-03  1.3124e-08  5.3462e-09  1.0914e-07  4.2917e-07  6.4436e-04  0:37:10 1593
   408  4.5630e-03  1.3034e-08  5.2930e-09  1.0866e-07  4.2868e-07  6.3946e-04  0:37:02 1592
   409  4.5206e-03  1.2978e-08  5.2626e-09  1.0829e-07  4.2846e-07  6.3486e-04  0:37:02 1591
   410  4.4786e-03  1.2907e-08  5.2436e-09  1.0797e-07  4.2697e-07  6.3008e-04  0:36:56 1590
   411  4.4368e-03  1.2830e-08  5.2196e-09  1.0767e-07  4.2592e-07  6.2530e-04  0:36:50 1589
   412  4.3954e-03  1.2752e-08  5.1999e-09  1.0731e-07  4.1943e-07  6.2072e-04  0:36:46 1588
   413  4.3540e-03  1.2660e-08  5.1596e-09  1.0688e-07  4.1826e-07  6.1587e-04  0:36:45 1587
   414  4.3132e-03  1.2588e-08  5.1368e-09  1.0656e-07  4.1681e-07  6.1118e-04  0:36:43 1586

  iter  continuity  x-velocity  y-velocity      energy           k       omega     time/iter
   415  4.2726e-03  1.2507e-08  5.1172e-09  1.0622e-07  4.1513e-07  6.0674e-04  0:36:40 1585
   416  4.2321e-03  1.2425e-08  5.0903e-09  1.0589e-07  4.1270e-07  6.0194e-04  0:36:38 1584
   417  4.1921e-03  1.2339e-08  5.0593e-09  1.0548e-07  4.1057e-07  5.9729e-04  0:36:40 1583
   418  4.1521e-03  1.2260e-08  5.0280e-09  1.0511e-07  4.0827e-07  5.9274e-04  0:36:34 1582
   419  4.1128e-03  1.2183e-08  4.9958e-09  1.0490e-07  4.0544e-07  5.8742e-04  0:36:32 1581
   420  4.0731e-03  1.2100e-08  4.9575e-09  1.0443e-07  4.0254e-07  5.8376e-04  0:36:39 1580
   421  4.0340e-03  1.2024e-08  4.9199e-09  1.0397e-07  3.9531e-07  5.7903e-04  0:36:30 1579
   422  3.9952e-03  1.1934e-08  4.8630e-09  1.0364e-07  3.9316e-07  5.7376e-04  0:36:23 1578
   423  3.9569e-03  1.1870e-08  4.8213e-09  1.0331e-07  3.8757e-07  5.6921e-04  0:36:19 1577
   424  3.9186e-03  1.1781e-08  4.7712e-09  1.0290e-07  3.8695e-07  5.6505e-04  0:36:19 1576
   425  3.8805e-03  1.1718e-08  4.7347e-09  1.0248e-07  3.7914e-07  5.6047e-04  0:36:00 1575

  iter  continuity  x-velocity  y-velocity      energy           k       omega     time/iter
   426  3.8427e-03  1.1634e-08  4.6863e-09  1.0194e-07  3.7556e-07  5.5607e-04  0:35:58 1574
   427  3.8048e-03  1.1570e-08  4.6304e-09  1.0155e-07  3.7708e-07  5.5168e-04  0:35:56 1573
   428  3.7676e-03  1.1513e-08  4.5943e-09  1.0125e-07  3.7348e-07  5.4710e-04  0:35:56 1572
   429  3.7304e-03  1.1433e-08  4.5470e-09  1.0089e-07  3.7465e-07  5.4255e-04  0:35:55 1571
   430  3.6935e-03  1.1383e-08  4.5224e-09  1.0062e-07  3.7498e-07  5.3788e-04  0:35:59 1570
   431  3.6568e-03  1.1318e-08  4.5009e-09  1.0014e-07  3.6998e-07  5.3394e-04  0:35:58 1569
   432  3.6206e-03  1.1243e-08  4.4672e-09  9.9808e-08  3.6660e-07  5.2882e-04  0:35:56 1568
   433  3.5848e-03  1.1179e-08  4.4370e-09  9.9480e-08  3.6672e-07  5.2438e-04  0:35:56 1567
   434  3.5493e-03  1.1120e-08  4.4207e-09  9.9179e-08  3.6069e-07  5.1985e-04  0:35:37 1566
   435  3.5141e-03  1.1042e-08  4.3974e-09  9.8803e-08  3.5826e-07  5.1563e-04  0:37:27 1565
   436  3.4788e-03  1.0978e-08  4.3705e-09  9.8426e-08  3.5323e-07  5.1132e-04  0:36:50 1564

  iter  continuity  x-velocity  y-velocity      energy           k       omega     time/iter
   437  3.4439e-03  1.0906e-08  4.3429e-09  9.8054e-08  3.5582e-07  5.0678e-04  0:36:37 1563
   438  3.4092e-03  1.0855e-08  4.3303e-09  9.7810e-08  3.5494e-07  5.0254e-04  0:36:15 1562
   439  3.3749e-03  1.0786e-08  4.3178e-09  9.7506e-08  3.5396e-07  4.9832e-04  0:36:43 1561
   440  3.3407e-03  1.0724e-08  4.3061e-09  9.7178e-08  3.4838e-07  4.9404e-04  0:36:12 1560
   441  3.3067e-03  1.0642e-08  4.2728e-09  9.6778e-08  3.4824e-07  4.8954e-04  0:35:52 1559
   442  3.2730e-03  1.0592e-08  4.2542e-09  9.6459e-08  3.4751e-07  4.8529e-04  0:35:40 1558
   443  3.2396e-03  1.0527e-08  4.2335e-09  9.6168e-08  3.4243e-07  4.8109e-04  0:35:21 1557
   444  3.2064e-03  1.0445e-08  4.1955e-09  9.5733e-08  3.4151e-07  4.7700e-04  0:35:10 1556
   445  3.1734e-03  1.0387e-08  4.1765e-09  9.5409e-08  3.3706e-07  4.7278e-04  0:34:57 1555
   446  3.1407e-03  1.0306e-08  4.1419e-09  9.5014e-08  3.3703e-07  4.6860e-04  0:35:29 1554
   447  3.1082e-03  1.0251e-08  4.1214e-09  9.4710e-08  3.3610e-07  4.6434e-04  0:35:15 1553

  iter  continuity  x-velocity  y-velocity      energy           k       omega     time/iter
   448  3.0762e-03  1.0186e-08  4.1018e-09  9.4401e-08  3.3034e-07  4.6013e-04  0:35:00 1552
   449  3.0441e-03  1.0102e-08  4.0625e-09  9.3977e-08  3.2982e-07  4.5604e-04  0:34:49 1551
   450  3.0125e-03  1.0047e-08  4.0411e-09  9.3653e-08  3.2896e-07  4.5193e-04  0:34:41 1550
   451  2.9813e-03  9.9804e-09  4.0193e-09  9.3328e-08  3.2387e-07  4.4786e-04  0:34:31 1549
   452  2.9499e-03  9.8954e-09  3.9784e-09  9.2910e-08  3.1960e-07  4.4368e-04  0:34:22 1548
   453  2.9190e-03  9.8260e-09  3.9386e-09  9.2487e-08  3.1931e-07  4.3949e-04  0:34:20 1547
   454  2.8884e-03  9.7660e-09  3.9157e-09  9.2155e-08  3.1935e-07  4.3546e-04  0:34:17 1546
   455  2.8579e-03  9.6972e-09  3.8917e-09  9.1869e-08  3.1838e-07  4.3138e-04  0:34:11 1545
   456  2.8278e-03  9.6223e-09  3.8700e-09  9.1563e-08  3.1296e-07  4.2728e-04  0:34:06 1544
   457  2.7978e-03  9.5338e-09  3.8286e-09  9.1133e-08  3.1133e-07  4.2327e-04  0:34:06 1543
   458  2.7680e-03  9.4727e-09  3.8000e-09  9.0753e-08  3.1046e-07  4.1926e-04  0:34:06 1542

  iter  continuity  x-velocity  y-velocity      energy           k       omega     time/iter
   459  2.7387e-03  9.4047e-09  3.7785e-09  9.0448e-08  3.0917e-07  4.1546e-04  0:34:02 1541
   460  2.7094e-03  9.3317e-09  3.7576e-09  9.0163e-08  3.0363e-07  4.1143e-04  0:34:00 1540
   461  2.6804e-03  9.2442e-09  3.7189e-09  8.9753e-08  3.0261e-07  4.0748e-04  0:34:02 1539
   462  2.6518e-03  9.1837e-09  3.6985e-09  8.9438e-08  3.0176e-07  4.0349e-04  0:33:59 1538
   463  2.6233e-03  9.1122e-09  3.6782e-09  8.9109e-08  2.9694e-07  3.9962e-04  0:33:55 1537
   464  2.5949e-03  9.0265e-09  3.6391e-09  8.8714e-08  2.9590e-07  3.9583e-04  0:33:49 1536
   465  2.5671e-03  8.9668e-09  3.6130e-09  8.8560e-08  2.9093e-07  3.9152e-04  0:33:53 1535
   466  2.5391e-03  8.8761e-09  3.5754e-09  8.8116e-08  2.8660e-07  3.8828e-04  0:33:48 1534
   467  2.5115e-03  8.8033e-09  3.5340e-09  8.7833e-08  2.8391e-07  3.8401e-04  0:33:42 1533
   468  2.4842e-03  8.7331e-09  3.4986e-09  8.7534e-08  2.8415e-07  3.8047e-04  0:33:40 1532
   469  2.4571e-03  8.6720e-09  3.4730e-09  8.7306e-08  2.8402e-07  3.7681e-04  0:33:52 1531

  iter  continuity  x-velocity  y-velocity      energy           k       omega     time/iter
   470  2.4299e-03  8.6030e-09  3.4480e-09  8.6879e-08  2.8012e-07  3.7379e-04  0:33:52 1530
   471  2.4030e-03  8.5257e-09  3.4072e-09  8.6417e-08  2.7721e-07  3.7011e-04  0:33:48 1529
   472  2.3766e-03  8.4631e-09  3.3771e-09  8.6186e-08  2.7709e-07  3.6579e-04  0:33:44 1528
   473  2.3505e-03  8.4080e-09  3.3583e-09  8.6004e-08  2.7640e-07  3.6217e-04  0:33:48 1527
   474  2.3243e-03  8.3403e-09  3.3394e-09  8.5618e-08  2.7503e-07  3.5928e-04  0:33:45 1526
   475  2.2986e-03  8.2765e-09  3.3222e-09  8.5428e-08  2.7088e-07  3.5508e-04  0:33:46 1525
   476  2.2728e-03  8.1987e-09  3.2911e-09  8.4950e-08  2.6964e-07  3.5206e-04  0:33:41 1524
   477  2.2476e-03  8.1418e-09  3.2762e-09  8.4772e-08  2.6832e-07  3.4817e-04  0:33:33 1523
   478  2.2226e-03  8.0750e-09  3.2635e-09  8.4587e-08  2.6641e-07  3.4464e-04  0:33:26 1522
   479  2.1978e-03  8.0046e-09  3.2466e-09  8.4344e-08  2.6444e-07  3.4131e-04  0:33:23 1521
   480  2.1731e-03  7.9356e-09  3.2259e-09  8.4069e-08  2.6218e-07  3.3786e-04  0:33:18 1520

  iter  continuity  x-velocity  y-velocity      energy           k       omega     time/iter
   481  2.1486e-03  7.8664e-09  3.2064e-09  8.3773e-08  2.5970e-07  3.3455e-04  0:33:16 1519
   482  2.1244e-03  7.7981e-09  3.1845e-09  8.3469e-08  2.5715e-07  3.3117e-04  0:33:13 1518
   483  2.1003e-03  7.7283e-09  3.1568e-09  8.3136e-08  2.5450e-07  3.2793e-04  0:33:19 1517
   484  2.0764e-03  7.6614e-09  3.1304e-09  8.2786e-08  2.4979e-07  3.2496e-04  0:33:07 1516
   485  2.0527e-03  7.5852e-09  3.0900e-09  8.2397e-08  2.4982e-07  3.2140e-04  0:33:04 1515
   486  2.0293e-03  7.5287e-09  3.0565e-09  8.1987e-08  2.4348e-07  3.1797e-04  0:32:44 1514
   487  2.0061e-03  7.4584e-09  3.0161e-09  8.1579e-08  2.4043e-07  3.1468e-04  0:32:45 1513
   488  1.9828e-03  7.4021e-09  2.9763e-09  8.1153e-08  2.4062e-07  3.1140e-04  0:32:53 1512
   489  1.9600e-03  7.3515e-09  2.9454e-09  8.0779e-08  2.3570e-07  3.0811e-04  0:32:36 1511
   490  1.9374e-03  7.2836e-09  2.9083e-09  8.0401e-08  2.3393e-07  3.0494e-04  0:32:42 1510
   491  1.9148e-03  7.2309e-09  2.8734e-09  8.0036e-08  2.3434e-07  3.0167e-04  0:33:36 1509

  iter  continuity  x-velocity  y-velocity      energy           k       omega     time/iter
   492  1.8926e-03  7.1801e-09  2.8489e-09  7.9755e-08  2.3405e-07  2.9845e-04  0:33:29 1508
   493  1.8706e-03  7.1233e-09  2.8287e-09  7.9499e-08  2.3134e-07  2.9533e-04  0:33:22 1507
   494  1.8488e-03  7.0578e-09  2.8030e-09  7.9180e-08  2.2831e-07  2.9246e-04  0:33:08 1506
   495  1.8271e-03  7.0000e-09  2.7789e-09  7.8855e-08  2.2719e-07  2.8907e-04  0:33:01 1505
   496  1.8057e-03  6.9441e-09  2.7583e-09  7.8562e-08  2.2698e-07  2.8590e-04  0:32:57 1504
   497  1.7846e-03  6.8914e-09  2.7488e-09  7.8328e-08  2.2628e-07  2.8280e-04  0:32:53 1503
   498  1.7637e-03  6.8309e-09  2.7419e-09  7.8036e-08  2.2209e-07  2.7996e-04  0:32:26 1502
   499  1.7430e-03  6.7652e-09  2.7239e-09  7.7730e-08  2.2288e-07  2.7679e-04  0:32:31 1501

Adapting mesh...
done.
   500  2.9641e-03  3.7022e-08  1.7265e-07  1.2908e-07  6.1213e-07  3.5661e-04  0:34:03 1500
   501  2.4150e-03  2.1665e-08  8.8827e-08  1.4370e-07  4.6408e-07  2.8579e-04  0:31:37 1499
   502  2.0200e-03  1.4895e-08  4.6246e-08  1.2601e-07  3.1252e-07  2.6980e-04  0:29:53 1498

  iter  continuity  x-velocity  y-velocity      energy           k       omega     time/iter
   503  1.8349e-03  1.1474e-08  2.4791e-08  1.0653e-07  2.4148e-07  2.6429e-04  0:29:06 1497
   504  1.7729e-03  9.7338e-09  1.3991e-08  9.3339e-08  2.1209e-07  2.6173e-04  0:28:51 1496
   505  1.7424e-03  8.7382e-09  8.5470e-09  8.5253e-08  2.0514e-07  2.5937e-04  0:28:44 1495
   506  1.7108e-03  8.1494e-09  5.7789e-09  8.0825e-08  2.0214e-07  2.5605e-04  0:29:02 1494
   507  1.6754e-03  7.7400e-09  4.3555e-09  7.8142e-08  2.0286e-07  2.5346e-04  0:29:14 1493
   508  1.6387e-03  7.4549e-09  3.6059e-09  7.6783e-08  2.0859e-07  2.5034e-04  0:29:38 1492
   509  1.6029e-03  7.2686e-09  3.1992e-09  7.6112e-08  2.0944e-07  2.4722e-04  0:29:55 1491
   510  1.5698e-03  7.0923e-09  2.9707e-09  7.5759e-08  2.1302e-07  2.4413e-04  0:30:25 1490
   511  1.5398e-03  6.9552e-09  2.8410e-09  7.5610e-08  2.1454e-07  2.4101e-04  0:30:47 1489
   512  1.5127e-03  6.8129e-09  2.7640e-09  7.5523e-08  2.1474e-07  2.3793e-04  0:31:30 1488
   513  1.4874e-03  6.6625e-09  2.7112e-09  7.5365e-08  2.1208e-07  2.3488e-04  0:31:52 1487

  iter  continuity  x-velocity  y-velocity      energy           k       omega     time/iter
   514  1.4639e-03  6.5008e-09  2.6795e-09  7.5132e-08  2.1021e-07  2.3178e-04  0:32:08 1486
   515  1.4418e-03  6.3527e-09  2.6761e-09  7.4896e-08  2.0757e-07  2.2871e-04  0:32:24 1485
   516  1.4207e-03  6.2082e-09  2.6739e-09  7.4594e-08  2.0532e-07  2.2569e-04  0:32:37 1484
   517  1.4003e-03  6.0770e-09  2.6630e-09  7.4249e-08  2.0247e-07  2.2273e-04  0:32:41 1483
   518  1.3805e-03  5.9584e-09  2.6395e-09  7.3795e-08  2.0245e-07  2.1976e-04  0:32:48 1482
   519  1.3616e-03  5.8494e-09  2.6057e-09  7.3506e-08  1.9796e-07  2.1658e-04  0:32:29 1481
   520  1.3434e-03  5.7315e-09  2.5542e-09  7.3084e-08  1.9608e-07  2.1383e-04  0:32:15 1480
   521  1.3256e-03  5.6302e-09  2.4920e-09  7.2599e-08  1.9361e-07  2.1120e-04  0:32:11 1479
   522  1.3083e-03  5.5279e-09  2.4250e-09  7.2101e-08  1.8928e-07  2.0870e-04  0:31:59 1478
   523  1.2914e-03  5.4281e-09  2.3522e-09  7.1594e-08  1.8609e-07  2.0616e-04  0:31:52 1477
   524  1.2749e-03  5.3418e-09  2.2812e-09  7.1144e-08  1.8267e-07  2.0379e-04  0:31:51 1476

  iter  continuity  x-velocity  y-velocity      energy           k       omega     time/iter
   525  1.2586e-03  5.2637e-09  2.2132e-09  7.0736e-08  1.7861e-07  2.0152e-04  0:31:59 1475
   526  1.2425e-03  5.1887e-09  2.1461e-09  7.0277e-08  1.7399e-07  1.9924e-04  0:31:49 1474
   527  1.2267e-03  5.1088e-09  2.0914e-09  6.9843e-08  1.7154e-07  1.9713e-04  0:31:46 1473
   528  1.2110e-03  5.0406e-09  2.0502e-09  6.9480e-08  1.6863e-07  1.9512e-04  0:31:39 1472
   529  1.1956e-03  4.9702e-09  2.0194e-09  6.9192e-08  1.6554e-07  1.9305e-04  0:31:35 1471
   530  1.1804e-03  4.8943e-09  1.9935e-09  6.8898e-08  1.6295e-07  1.9106e-04  0:31:32 1470
   531  1.1654e-03  4.8251e-09  1.9746e-09  6.8597e-08  1.6258e-07  1.8917e-04  0:31:29 1469
   532  1.1505e-03  4.7648e-09  1.9679e-09  6.8315e-08  1.5987e-07  1.8726e-04  0:31:07 1468
   533  1.1360e-03  4.6999e-09  1.9591e-09  6.7993e-08  1.5767e-07  1.8546e-04  0:30:52 1467
   534  1.1215e-03  4.6458e-09  1.9491e-09  6.7647e-08  1.5725e-07  1.8369e-04  0:30:41 1466
   535  1.1072e-03  4.5994e-09  1.9392e-09  6.7343e-08  1.5447e-07  1.8194e-04  0:30:29 1465

  iter  continuity  x-velocity  y-velocity      energy           k       omega     time/iter
   536  1.0931e-03  4.5460e-09  1.9170e-09  6.7016e-08  1.5400e-07  1.8024e-04  0:30:29 1464
   537  1.0792e-03  4.5068e-09  1.8977e-09  6.6877e-08  1.5259e-07  1.7808e-04  0:30:19 1463
   538  1.0656e-03  4.4601e-09  1.8773e-09  6.6553e-08  1.5028e-07  1.7662e-04  0:30:11 1462
   539  1.0518e-03  4.4126e-09  1.8497e-09  6.6267e-08  1.5033e-07  1.7511e-04  0:31:08 1461
   540  1.0382e-03  4.3742e-09  1.8277e-09  6.5963e-08  1.4806e-07  1.7333e-04  0:30:50 1460
   541  1.0250e-03  4.3334e-09  1.8102e-09  6.5713e-08  1.4762e-07  1.7151e-04  0:31:01 1459
   542  1.0118e-03  4.2903e-09  1.7956e-09  6.5441e-08  1.4517e-07  1.6983e-04  0:30:43 1458
   543  9.9894e-04  4.2517e-09  1.7844e-09  6.5213e-08  1.4450e-07  1.6798e-04  0:30:52 1457
   544  9.8607e-04  4.2115e-09  1.7737e-09  6.4981e-08  1.4252e-07  1.6627e-04  0:30:50 1456
   545  9.7349e-04  4.1701e-09  1.7637e-09  6.4724e-08  1.4079e-07  1.6447e-04  0:30:34 1455
   546  9.6115e-04  4.1303e-09  1.7541e-09  6.4481e-08  1.3909e-07  1.6264e-04  0:30:22 1454

  iter  continuity  x-velocity  y-velocity      energy           k       omega     time/iter
   547  9.4889e-04  4.0938e-09  1.7436e-09  6.4404e-08  1.3750e-07  1.6050e-04  0:30:11 1453
   548  9.3686e-04  4.0527e-09  1.7288e-09  6.4110e-08  1.3617e-07  1.5908e-04  0:30:06 1452
   549  9.2483e-04  4.0163e-09  1.7121e-09  6.3973e-08  1.3402e-07  1.5698e-04  0:29:56 1451
   550  9.1301e-04  3.9770e-09  1.6917e-09  6.3640e-08  1.3292e-07  1.5553e-04  0:29:46 1450
   551  9.0113e-04  3.9413e-09  1.6704e-09  6.3483e-08  1.3168e-07  1.5342e-04  0:29:38 1449
   552  8.8952e-04  3.9036e-09  1.6468e-09  6.3299e-08  1.3029e-07  1.5158e-04  0:29:37 1448
   553  8.7809e-04  3.8660e-09  1.6213e-09  6.2907e-08  1.2766e-07  1.5012e-04  0:29:31 1447
   554  8.6646e-04  3.8289e-09  1.5927e-09  6.2683e-08  1.2669e-07  1.4799e-04  0:29:26 1446
   555  8.5521e-04  3.7981e-09  1.5679e-09  6.2464e-08  1.2563e-07  1.4618e-04  0:29:27 1445
   556  8.4411e-04  3.7620e-09  1.5446e-09  6.2242e-08  1.2453e-07  1.4442e-04  0:29:23 1444
   557  8.3308e-04  3.7247e-09  1.5220e-09  6.2019e-08  1.2331e-07  1.4269e-04  0:29:26 1443

  iter  continuity  x-velocity  y-velocity      energy           k       omega     time/iter
   558  8.2220e-04  3.6866e-09  1.5009e-09  6.1786e-08  1.2148e-07  1.4087e-04  0:29:23 1442
   559  8.1142e-04  3.6494e-09  1.4815e-09  6.1552e-08  1.2063e-07  1.3911e-04  0:29:19 1441
   560  8.0077e-04  3.6125e-09  1.4629e-09  6.1326e-08  1.1962e-07  1.3734e-04  0:29:24 1440
   561  7.9038e-04  3.5755e-09  1.4462e-09  6.0917e-08  1.1858e-07  1.3593e-04  0:29:22 1439
   562  7.7976e-04  3.5419e-09  1.4341e-09  6.0721e-08  1.1671e-07  1.3391e-04  0:29:14 1438
   563  7.6948e-04  3.5004e-09  1.4192e-09  6.0516e-08  1.1497e-07  1.3215e-04  0:29:12 1437
   564  7.5927e-04  3.4590e-09  1.4023e-09  6.0297e-08  1.1465e-07  1.3049e-04  0:29:07 1436
   565  7.4915e-04  3.4241e-09  1.3917e-09  6.0097e-08  1.1409e-07  1.2887e-04  0:29:05 1435
   566  7.3919e-04  3.3850e-09  1.3821e-09  5.9893e-08  1.1336e-07  1.2727e-04  0:29:04 1434
   567  7.2936e-04  3.3459e-09  1.3711e-09  5.9684e-08  1.1243e-07  1.2569e-04  0:28:59 1433
   568  7.1965e-04  3.3061e-09  1.3597e-09  5.9461e-08  1.1142e-07  1.2419e-04  0:28:54 1432

  iter  continuity  x-velocity  y-velocity      energy           k       omega     time/iter
   569  7.1001e-04  3.2673e-09  1.3477e-09  5.9243e-08  1.0946e-07  1.2267e-04  0:28:52 1431
   570  7.0044e-04  3.2258e-09  1.3310e-09  5.8996e-08  1.0864e-07  1.2124e-04  0:28:52 1430
[...]
  1835  1.3510e-06  4.8698e-11  2.1523e-11  5.9181e-09  2.3254e-09  1.2481e-05  0:03:19  165
  1836  1.3333e-06  4.8206e-11  2.1554e-11  5.9084e-09  2.3230e-09  1.2483e-05  0:03:18  164
  1837  1.3223e-06  4.7984e-11  2.1533e-11  5.8979e-09  2.2872e-09  1.2473e-05  0:03:15  163
  1838  1.3208e-06  4.7832e-11  2.1376e-11  5.8853e-09  2.2727e-09  1.2460e-05  0:03:13  162
  1839  1.4079e-06  4.7970e-11  2.1220e-11  5.8940e-09  2.2605e-09  1.2161e-05  0:03:12  161
  1840  1.3554e-06  4.9098e-11  2.1095e-11  5.8770e-09  2.2617e-09  1.2351e-05  0:03:11  160
  1841  1.3405e-06  4.8456e-11  2.0958e-11  5.8660e-09  2.2672e-09  1.2400e-05  0:03:10  159
  1842  1.3043e-06  4.8045e-11  2.0954e-11  5.8556e-09  2.2698e-09  1.2402e-05  0:03:09  158
  1843  1.3411e-06  4.7928e-11  2.0958e-11  5.8651e-09  2.2629e-09  1.2108e-05  0:03:08  157
  1844  1.3012e-06  4.8756e-11  2.0881e-11  5.8487e-09  2.2635e-09  1.2302e-05  0:03:07  156

  iter  continuity  x-velocity  y-velocity      energy           k       omega     time/iter
  1845  1.2988e-06  4.7985e-11  2.0869e-11  5.8385e-09  2.2641e-09  1.2352e-05  0:03:11  155
  1846  1.2882e-06  4.7490e-11  2.0904e-11  5.8279e-09  2.2635e-09  1.2354e-05  0:03:09  154
  1847  1.2899e-06  4.7292e-11  2.0882e-11  5.8170e-09  2.2637e-09  1.2344e-05  0:03:06  153
  1848  1.3032e-06  4.7178e-11  2.0785e-11  5.8057e-09  2.2655e-09  1.2329e-05  0:03:04  152
  1849  1.3956e-06  4.7274e-11  2.0653e-11  5.8148e-09  2.2670e-09  1.2032e-05  0:03:03  151
  1850  1.3456e-06  4.8477e-11  2.0496e-11  5.7977e-09  2.2696e-09  1.2220e-05  0:03:01  150
  1851  1.3255e-06  4.7899e-11  2.0305e-11  5.7865e-09  2.2707e-09  1.2269e-05  0:02:59  149
  1852  1.2836e-06  4.7593e-11  2.0284e-11  5.7760e-09  2.2721e-09  1.2270e-05  0:02:58  148
  1853  1.2476e-06  4.7556e-11  2.0299e-11  5.7659e-09  2.2711e-09  1.2260e-05  0:02:56  147
  1854  1.3184e-06  4.7681e-11  2.0356e-11  5.7763e-09  2.2857e-09  1.1965e-05  0:02:55  146
  1855  1.2657e-06  4.8867e-11  2.0531e-11  5.7631e-09  2.3013e-09  1.2155e-05  0:02:53  145

  iter  continuity  x-velocity  y-velocity      energy           k       omega     time/iter
  1856  1.2633e-06  4.8286e-11  2.0686e-11  5.7558e-09  2.3122e-09  1.2204e-05  0:02:52  144
  1857  1.2466e-06  4.7917e-11  2.0894e-11  5.7482e-09  2.3154e-09  1.2205e-05  0:02:51  143
  1858  1.2416e-06  4.7769e-11  2.1034e-11  5.7395e-09  2.3149e-09  1.2196e-05  0:02:55  142
  1859  1.2507e-06  4.7661e-11  2.1118e-11  5.7301e-09  2.3123e-09  1.2182e-05  0:02:53  141
  1860  1.2624e-06  4.7614e-11  2.1173e-11  5.7198e-09  2.3096e-09  1.2166e-05  0:02:50  140
  1861  1.3571e-06  4.7775e-11  2.1256e-11  5.7295e-09  2.3051e-09  1.1869e-05  0:02:49  139
  1862  1.3068e-06  4.8918e-11  2.1359e-11  5.7125e-09  2.3048e-09  1.2057e-05  0:02:47  138
  1863  1.2938e-06  4.8218e-11  2.1424e-11  5.7013e-09  2.3026e-09  1.2105e-05  0:02:46  137
  1864  1.2630e-06  4.7715e-11  2.1601e-11  5.6903e-09  2.2940e-09  1.2107e-05  0:02:44  136
  1865  1.2404e-06  4.7398e-11  2.1723e-11  5.6790e-09  2.2815e-09  1.2097e-05  0:02:43  135
  1866  1.2385e-06  4.7129e-11  2.1754e-11  5.6672e-09  2.2683e-09  1.2083e-05  0:02:42  134

  iter  continuity  x-velocity  y-velocity      energy           k       omega     time/iter
  1867  1.2543e-06  4.6896e-11  2.1677e-11  5.6552e-09  2.2579e-09  1.2067e-05  0:02:40  133
  1868  1.2712e-06  4.6723e-11  2.1512e-11  5.6428e-09  2.2523e-09  1.2051e-05  0:02:39  132
  1869  1.2790e-06  4.6621e-11  2.1303e-11  5.6303e-09  2.2377e-09  1.2034e-05  0:02:36  131
  1870  1.3676e-06  4.6701e-11  2.1078e-11  5.6381e-09  2.2353e-09  1.1740e-05  0:02:35  130
  1871  1.3081e-06  4.7889e-11  2.0945e-11  5.6211e-09  2.2238e-09  1.1925e-05  0:02:33  129
  1872  1.2864e-06  4.7235e-11  2.0733e-11  5.6103e-09  2.2121e-09  1.1973e-05  0:02:31  128
  1873  1.2527e-06  4.6770e-11  2.0669e-11  5.6007e-09  2.1987e-09  1.1975e-05  0:02:29  127
  1874  1.2274e-06  4.6548e-11  2.0647e-11  5.5917e-09  2.1960e-09  1.1965e-05  0:02:28  126
  1875  1.2271e-06  4.6357e-11  2.0673e-11  5.5838e-09  2.1913e-09  1.1952e-05  0:02:27  125
  1876  1.3289e-06  4.6252e-11  2.0675e-11  5.5948e-09  2.1853e-09  1.1660e-05  0:02:27  124
  1877  1.2878e-06  4.7074e-11  2.0540e-11  5.5808e-09  2.1756e-09  1.1845e-05  0:02:24  123

  iter  continuity  x-velocity  y-velocity      energy           k       omega     time/iter
  1878  1.2800e-06  4.6382e-11  2.0406e-11  5.5715e-09  2.1713e-09  1.1892e-05  0:02:22  122
  1879  1.2602e-06  4.5921e-11  2.0396e-11  5.5621e-09  2.1671e-09  1.1894e-05  0:02:21  121
  1880  1.2487e-06  4.5720e-11  2.0384e-11  5.5522e-09  2.1643e-09  1.1883e-05  0:02:19  120
  1881  1.2438e-06  4.5610e-11  2.0359e-11  5.5419e-09  2.1628e-09  1.1869e-05  0:02:17  119
  1882  1.3260e-06  4.5650e-11  2.0319e-11  5.5509e-09  2.1697e-09  1.1579e-05  0:02:17  118
  1883  1.2756e-06  4.6652e-11  2.0234e-11  5.5351e-09  2.1623e-09  1.1764e-05  0:02:17  117
  1884  1.2630e-06  4.5861e-11  2.0038e-11  5.5235e-09  2.1582e-09  1.1812e-05  0:02:18  116
  1885  1.2299e-06  4.5368e-11  1.9900e-11  5.5124e-09  2.1530e-09  1.1814e-05  0:02:17  115
  1886  1.2082e-06  4.5103e-11  1.9762e-11  5.5014e-09  2.1482e-09  1.1804e-05  0:02:16  114
  1887  1.2796e-06  4.5025e-11  1.9666e-11  5.5095e-09  2.1399e-09  1.1516e-05  0:02:15  113
  1888  1.2380e-06  4.5951e-11  1.9517e-11  5.4939e-09  2.1432e-09  1.1703e-05  0:02:14  112

  iter  continuity  x-velocity  y-velocity      energy           k       omega     time/iter
  1889  1.2402e-06  4.5396e-11  1.9485e-11  5.4854e-09  2.1677e-09  1.1751e-05  0:02:13  111
  1890  1.2219e-06  4.5171e-11  1.9638e-11  5.4786e-09  2.1833e-09  1.1753e-05  0:02:12  110
  1891  1.2117e-06  4.5120e-11  1.9745e-11  5.4716e-09  2.1913e-09  1.1744e-05  0:02:11  109
  1892  1.2132e-06  4.5112e-11  1.9780e-11  5.4641e-09  2.1943e-09  1.1731e-05  0:02:10  108
  1893  1.2972e-06  4.5258e-11  1.9793e-11  5.4753e-09  2.2058e-09  1.1442e-05  0:02:10  107
  1894  1.2490e-06  4.6343e-11  1.9825e-11  5.4623e-09  2.2058e-09  1.1627e-05  0:02:08  106
  1895  1.2373e-06  4.5709e-11  1.9870e-11  5.4536e-09  2.2048e-09  1.1674e-05  0:02:07  105
  1896  1.2040e-06  4.5322e-11  2.0056e-11  5.4446e-09  2.1991e-09  1.1676e-05  0:02:06  104
  1897  1.1770e-06  4.5145e-11  2.0191e-11  5.4348e-09  2.1914e-09  1.1667e-05  0:02:04  103
  1898  1.1675e-06  4.5025e-11  2.0276e-11  5.4243e-09  2.1838e-09  1.1654e-05  0:02:02  102
  1899  1.2540e-06  4.5044e-11  2.0333e-11  5.4327e-09  2.1737e-09  1.1367e-05  0:02:01  101

  iter  continuity  x-velocity  y-velocity      energy           k       omega     time/iter
  1900  1.2107e-06  4.5981e-11  2.0326e-11  5.4159e-09  2.1719e-09  1.1550e-05  0:02:00  100
  1901  1.2062e-06  4.5320e-11  2.0277e-11  5.4045e-09  2.1588e-09  1.1597e-05  0:01:58   99
  1902  1.1871e-06  4.4853e-11  2.0256e-11  5.3924e-09  2.1405e-09  1.1598e-05  0:01:57   98
  1903  1.1799e-06  4.4524e-11  2.0116e-11  5.3801e-09  2.1240e-09  1.1588e-05  0:01:55   97
  1904  1.1843e-06  4.4321e-11  1.9946e-11  5.3681e-09  2.1159e-09  1.1574e-05  0:01:53   96
  1905  1.1910e-06  4.4316e-11  1.9835e-11  5.3568e-09  2.1240e-09  1.1558e-05  0:01:52   95
  1906  1.2808e-06  4.4446e-11  1.9719e-11  5.3658e-09  2.1273e-09  1.1272e-05  0:01:51   94
  1907  1.2261e-06  4.5484e-11  1.9636e-11  5.3507e-09  2.1333e-09  1.1452e-05  0:01:51   93
  1908  1.2108e-06  4.4851e-11  1.9488e-11  5.3414e-09  2.1265e-09  1.1498e-05  0:01:51   92
  1909  1.1790e-06  4.4427e-11  1.9459e-11  5.3320e-09  2.1160e-09  1.1499e-05  0:01:48   91
  1910  1.1557e-06  4.4238e-11  1.9422e-11  5.3228e-09  2.1155e-09  1.1488e-05  0:01:47   90

  iter  continuity  x-velocity  y-velocity      energy           k       omega     time/iter
  1911  1.1492e-06  4.4107e-11  1.9414e-11  5.3145e-09  2.1121e-09  1.1474e-05  0:01:46   89
  1912  1.1576e-06  4.4002e-11  1.9401e-11  5.3057e-09  2.0989e-09  1.1458e-05  0:01:44   88
  1913  1.2536e-06  4.4074e-11  1.9376e-11  5.3141e-09  2.0807e-09  1.1174e-05  0:01:43   87
  1914  1.2056e-06  4.5008e-11  1.9259e-11  5.2984e-09  2.0752e-09  1.1353e-05  0:01:42   86
  1915  1.1921e-06  4.4385e-11  1.9100e-11  5.2888e-09  2.0729e-09  1.1399e-05  0:01:41   85
  1916  1.1661e-06  4.3929e-11  1.9071e-11  5.2795e-09  2.0671e-09  1.1400e-05  0:01:40   84
  1917  1.1485e-06  4.3688e-11  1.9047e-11  5.2700e-09  2.0603e-09  1.1390e-05  0:01:39   83
  1918  1.2209e-06  4.3635e-11  1.9052e-11  5.2784e-09  2.0489e-09  1.1108e-05  0:01:38   82
  1919  1.1791e-06  4.4430e-11  1.9015e-11  5.2636e-09  2.0481e-09  1.1289e-05  0:01:37   81
  1920  1.1778e-06  4.3802e-11  1.8949e-11  5.2545e-09  2.0495e-09  1.1335e-05  0:01:36   80
  1921  1.1596e-06  4.3385e-11  1.8925e-11  5.2454e-09  2.0502e-09  1.1336e-05  0:01:35   79

  iter  continuity  x-velocity  y-velocity      energy           k       omega     time/iter
  1922  1.1505e-06  4.3200e-11  1.8855e-11  5.2360e-09  2.0514e-09  1.1326e-05  0:01:34   78
  1923  1.1546e-06  4.3077e-11  1.8745e-11  5.2263e-09  2.0548e-09  1.1312e-05  0:01:32   77
  1924  1.2422e-06  4.3140e-11  1.8647e-11  5.2352e-09  2.0546e-09  1.1031e-05  0:01:31   76
  1925  1.1945e-06  4.4149e-11  1.8590e-11  5.2201e-09  2.0589e-09  1.1209e-05  0:01:30   75
  1926  1.1797e-06  4.3570e-11  1.8472e-11  5.2104e-09  2.0634e-09  1.1255e-05  0:01:29   74
  1927  1.1464e-06  4.3219e-11  1.8466e-11  5.2011e-09  2.0646e-09  1.1256e-05  0:01:27   73
  1928  1.1212e-06  4.3081e-11  1.8472e-11  5.1919e-09  2.0645e-09  1.1247e-05  0:01:26   72
  1929  1.1137e-06  4.3025e-11  1.8482e-11  5.1827e-09  2.0618e-09  1.1234e-05  0:01:25   71
  1930  1.2023e-06  4.3116e-11  1.8508e-11  5.1914e-09  2.0543e-09  1.0955e-05  0:01:24   70
  1931  1.1593e-06  4.4128e-11  1.8508e-11  5.1771e-09  2.0562e-09  1.1133e-05  0:01:22   69
  1932  1.1534e-06  4.3643e-11  1.8514e-11  5.1688e-09  2.0592e-09  1.1179e-05  0:01:21   68

  iter  continuity  x-velocity  y-velocity      energy           k       omega     time/iter
  1933  1.1312e-06  4.3322e-11  1.8601e-11  5.1608e-09  2.0587e-09  1.1181e-05  0:01:20   67
  1934  1.1181e-06  4.3201e-11  1.8647e-11  5.1527e-09  2.0555e-09  1.1172e-05  0:01:19   66
  1935  1.1895e-06  4.3237e-11  1.8692e-11  5.1623e-09  2.0641e-09  1.0894e-05  0:01:18   65
  1936  1.1493e-06  4.4210e-11  1.8784e-11  5.1502e-09  2.0737e-09  1.1073e-05  0:01:17   64
  1937  1.1484e-06  4.3668e-11  1.8896e-11  5.1432e-09  2.0795e-09  1.1119e-05  0:01:15   63
  1938  1.1285e-06  4.3296e-11  1.9078e-11  5.1356e-09  2.0794e-09  1.1120e-05  0:01:14   62
  1939  1.1177e-06  4.3125e-11  1.9205e-11  5.1271e-09  2.0768e-09  1.1110e-05  0:01:13   61
  1940  1.1218e-06  4.2977e-11  1.9277e-11  5.1178e-09  2.0739e-09  1.1097e-05  0:01:12   60
  1941  1.1298e-06  4.2868e-11  1.9293e-11  5.1075e-09  2.0723e-09  1.1082e-05  0:01:11   59
  1942  1.1330e-06  4.2842e-11  1.9269e-11  5.0965e-09  2.0735e-09  1.1066e-05  0:01:10   58
  1943  1.1305e-06  4.2859e-11  1.9214e-11  5.0850e-09  2.0746e-09  1.1050e-05  0:01:08   57

  iter  continuity  x-velocity  y-velocity      energy           k       omega     time/iter
  1944  1.1246e-06  4.2873e-11  1.9143e-11  5.0735e-09  2.0757e-09  1.1035e-05  0:01:07   56
  1945  1.1158e-06  4.2894e-11  1.9074e-11  5.0624e-09  2.0745e-09  1.1020e-05  0:01:06   55
  1946  1.1949e-06  4.3002e-11  1.9052e-11  5.0707e-09  2.0657e-09  1.0746e-05  0:01:05   54
  1947  1.1402e-06  4.4064e-11  1.9148e-11  5.0562e-09  2.0451e-09  1.0919e-05  0:01:03   53
  1948  1.1382e-06  4.3432e-11  1.9193e-11  5.0471e-09  2.0260e-09  1.0965e-05  0:01:02   52
  1949  1.1322e-06  4.2985e-11  1.9308e-11  5.0390e-09  2.0062e-09  1.0966e-05  0:01:01   51
  1950  1.1322e-06  4.2745e-11  1.9398e-11  5.0316e-09  1.9983e-09  1.0957e-05  0:01:00   50
  1951  1.1484e-06  4.2519e-11  1.9382e-11  5.0252e-09  1.9932e-09  1.0944e-05  0:01:00   49
  1952  1.1720e-06  4.2319e-11  1.9338e-11  5.0188e-09  1.9906e-09  1.0930e-05  0:00:59   48
  1953  1.1888e-06  4.2174e-11  1.9281e-11  5.0119e-09  2.0008e-09  1.0914e-05  0:00:58   47
  1954  1.1984e-06  4.2097e-11  1.9240e-11  5.0046e-09  2.0094e-09  1.0898e-05  0:00:58   46

  iter  continuity  x-velocity  y-velocity      energy           k       omega     time/iter
  1955  1.1986e-06  4.2025e-11  1.9289e-11  4.9963e-09  2.0168e-09  1.0883e-05  0:01:00   45
  1956  1.1898e-06  4.1982e-11  1.9373e-11  4.9872e-09  2.0236e-09  1.0868e-05  0:00:58   44
  1957  1.2408e-06  4.2053e-11  1.9448e-11  4.9975e-09  2.0234e-09  1.0598e-05  0:00:58   43
  1958  1.1922e-06  4.3035e-11  1.9479e-11  4.9827e-09  2.0266e-09  1.0769e-05  0:00:56   42
  1959  1.1815e-06  4.2300e-11  1.9494e-11  4.9733e-09  2.0245e-09  1.0813e-05  0:00:55   41
  1960  1.1609e-06  4.1648e-11  1.9514e-11  4.9643e-09  2.0148e-09  1.0815e-05  0:00:53   40
  1961  1.1529e-06  4.1211e-11  1.9450e-11  4.9551e-09  2.0020e-09  1.0807e-05  0:00:52   39
  1962  1.1706e-06  4.0883e-11  1.9325e-11  4.9461e-09  1.9890e-09  1.0795e-05  0:00:50   38
  1963  1.1979e-06  4.0633e-11  1.9110e-11  4.9377e-09  1.9947e-09  1.0781e-05  0:00:49   37
  1964  1.2605e-06  4.0663e-11  1.8894e-11  4.9477e-09  1.9967e-09  1.0513e-05  0:00:47   36
  1965  1.2317e-06  4.1523e-11  1.8592e-11  4.9359e-09  1.9997e-09  1.0683e-05  0:00:46   35

  iter  continuity  x-velocity  y-velocity      energy           k       omega     time/iter
  1966  1.2165e-06  4.0924e-11  1.8400e-11  4.9295e-09  1.9998e-09  1.0727e-05  0:00:45   34
  1967  1.1834e-06  4.0529e-11  1.8420e-11  4.9229e-09  1.9803e-09  1.0729e-05  0:00:43   33
  1968  1.1536e-06  4.0317e-11  1.8425e-11  4.9152e-09  1.9631e-09  1.0721e-05  0:00:42   32
  1969  1.1333e-06  4.0239e-11  1.8412e-11  4.9073e-09  1.9510e-09  1.0709e-05  0:00:41   31
  1970  1.1219e-06  4.0194e-11  1.8364e-11  4.8985e-09  1.9454e-09  1.0695e-05  0:00:39   30
  1971  1.1812e-06  4.0250e-11  1.8283e-11  4.9068e-09  1.9418e-09  1.0429e-05  0:00:38   29
  1972  1.1316e-06  4.1169e-11  1.8162e-11  4.8918e-09  1.9385e-09  1.0599e-05  0:00:36   28
  1973  1.1151e-06  4.0539e-11  1.8003e-11  4.8811e-09  1.9295e-09  1.0643e-05  0:00:35   27
  1974  1.0898e-06  4.0108e-11  1.7931e-11  4.8700e-09  1.9385e-09  1.0645e-05  0:00:33   26
  1975  1.1161e-06  4.0087e-11  1.7967e-11  4.8771e-09  1.9371e-09  1.0382e-05  0:00:31   25
  1976  1.0967e-06  4.0875e-11  1.7881e-11  4.8634e-09  1.9476e-09  1.0557e-05  0:00:30   24

  iter  continuity  x-velocity  y-velocity      energy           k       omega     time/iter
  1977  1.1140e-06  4.0384e-11  1.7952e-11  4.8563e-09  1.9517e-09  1.0601e-05  0:00:29   23
  1978  1.1142e-06  4.0055e-11  1.8091e-11  4.8495e-09  1.9506e-09  1.0602e-05  0:00:27   22
  1979  1.1154e-06  3.9954e-11  1.8122e-11  4.8425e-09  1.9484e-09  1.0593e-05  0:00:26   21
  1980  1.1209e-06  3.9887e-11  1.8078e-11  4.8351e-09  1.9470e-09  1.0580e-05  0:00:25   20
  1981  1.1227e-06  3.9891e-11  1.8023e-11  4.8273e-09  1.9550e-09  1.0565e-05  0:00:24   19
  1982  1.1177e-06  3.9971e-11  1.7986e-11  4.8194e-09  1.9635e-09  1.0550e-05  0:00:23   18
  1983  1.1044e-06  4.0081e-11  1.8004e-11  4.8110e-09  1.9714e-09  1.0534e-05  0:00:22   17
  1984  1.0854e-06  4.0212e-11  1.8034e-11  4.8018e-09  1.9681e-09  1.0519e-05  0:00:20   16
  1985  1.1408e-06  4.0421e-11  1.8082e-11  4.8104e-09  1.9685e-09  1.0256e-05  0:00:19   15
  1986  1.0887e-06  4.1516e-11  1.8199e-11  4.7966e-09  1.9726e-09  1.0423e-05  0:00:18   14
  1987  1.0782e-06  4.0922e-11  1.8307e-11  4.7881e-09  1.9623e-09  1.0466e-05  0:00:17   13

  iter  continuity  x-velocity  y-velocity      energy           k       omega     time/iter
  1988  1.0624e-06  4.0471e-11  1.8436e-11  4.7794e-09  1.9483e-09  1.0467e-05  0:00:15   12
  1989  1.0621e-06  4.0253e-11  1.8558e-11  4.7708e-09  1.9345e-09  1.0458e-05  0:00:14   11
  1990  1.0804e-06  4.0080e-11  1.8628e-11  4.7625e-09  1.9293e-09  1.0446e-05  0:00:13   10
  1991  1.1085e-06  3.9911e-11  1.8606e-11  4.7551e-09  1.9260e-09  1.0431e-05  0:00:12    9
  1992  1.1277e-06  3.9770e-11  1.8512e-11  4.7479e-09  1.9250e-09  1.0416e-05  0:00:10    8
  1993  1.1360e-06  3.9678e-11  1.8409e-11  4.7402e-09  1.9235e-09  1.0401e-05  0:00:09    7
  1994  1.1369e-06  3.9641e-11  1.8357e-11  4.7318e-09  1.9181e-09  1.0386e-05  0:00:08    6
  1995  1.1301e-06  3.9602e-11  1.8374e-11  4.7228e-09  1.9148e-09  1.0371e-05  0:00:06    5
  1996  1.1152e-06  3.9610e-11  1.8416e-11  4.7136e-09  1.9142e-09  1.0356e-05  0:00:05    4
  1997  1.1633e-06  3.9678e-11  1.8435e-11  4.7224e-09  1.9084e-09  1.0097e-05  0:00:04    3
  1998  1.1188e-06  4.0576e-11  1.8444e-11  4.7087e-09  1.9081e-09  1.0261e-05  0:00:03    2

  iter  continuity  x-velocity  y-velocity      energy           k       omega     time/iter
  1999  1.1148e-06  3.9863e-11  1.8443e-11  4.7002e-09  1.9039e-09  1.0304e-05  0:00:01    1

Adapting mesh...
done.
  2000  1.1048e-06  3.9315e-11  1.8487e-11  4.6920e-09  1.8950e-09  1.0305e-05  0:00:00    0
#t
;

(ti-menu-load-string (format #f "/plot plot yes M4_Ar_295K_Pin_4830_Pout_23_Bham_PBS_2000_Iterations/axial_pressure yes no no total-pressure yes 1 0 axis ()"))
/plot plot yes M4_Ar_295K_Pin_4830_Pout_23_Bham_PBS_2000_Iterations/axial_pressure yes no no total-pressure yes 1 0 axis ()#t


> (ti-menu-load-string (format #f "/plot plot yes M4_Ar_295K_Pin_4830_Pout_23_Bham_PBS_2000_Iterations/axial_mach yes no no mach-number yes 1 0 axis ()"))
/plot plot yes M4_Ar_295K_Pin_4830_Pout_23_Bham_PBS_2000_Iterations/axial_mach yes no no mach-number yes 1 0 axis ()#t


> (ti-menu-load-string (format #f "/plot plot yes M4_Ar_295K_Pin_4830_Pout_23_Bham_PBS_2000_Iterations/axial_temperature yes no no temperature yes 1 0 axis ()"))
/plot plot yes M4_Ar_295K_Pin_4830_Pout_23_Bham_PBS_2000_Iterations/axial_temperature yes no no temperature yes 1 0 axis ()#t


> (ti-menu-load-string (format #f "/plot plot yes M4_Ar_295K_Pin_4830_Pout_23_Bham_PBS_2000_Iterations/axial_density yes no no density yes 1 0 axis ()"))
/plot plot yes M4_Ar_295K_Pin_4830_Pout_23_Bham_PBS_2000_Iterations/axial_density yes no no density yes 1 0 axis ()#t


> 
adjoint/                mesh/                   report/
define/                 parallel/               server/
display/                plot/                   solve/
exit                    preferences/            surface/
file/                   print-license-usage     views/

> (ti-menu-load-string (format #f "/file/write-case M4_Ar_295K_Pin_4830_Pout_23_Bham_PBS_2000_Iterations/CFD_Data.cas y"))
/file/write-case M4_Ar_295K_Pin_4830_Pout_23_Bham_PBS_2000_Iterations/CFD_Data.cas Fast-loading "/apps/applications/ansys/2023R1/1/default/v231/fluent/fluent23.1.0/addons/afd/lib/hdfio.bin"
Done.

Writing to d13s9b2.arc4.leeds.ac.uk:"/nobackup/scldr/ACRE/M4_Ar_295K_Pin_4830_Pout_23_Bham_PBS_2000_Iterations/CFD_Data.cas.h5" in NODE0 mode and compression level 1 ...
Grouping cells for Laplace smoothing ...
     1514266 cells,     2 zones ...
     3055826 faces,    18 zones ...
     1507389 nodes,     1 zone  ...
  Done.

  Writing automatic adaption criteria ...
  Done.
Done.
yinvalid command [y]
#t


> (ti-menu-load-string (format #f "/file/write-data M4_Ar_295K_Pin_4830_Pout_23_Bham_PBS_2000_Iterations/CFD_Data.dat y"))
/file/write-data M4_Ar_295K_Pin_4830_Pout_23_Bham_PBS_2000_Iterations/CFD_Data.dat 
Writing to d13s9b2.arc4.leeds.ac.uk:"/nobackup/scldr/ACRE/M4_Ar_295K_Pin_4830_Pout_23_Bham_PBS_2000_Iterations/CFD_Data.dat.h5" in NODE0 mode and compression level 1 ...
  Writing results.
Done.
yinvalid command [y]
#t


> 
adjoint/                mesh/                   report/
define/                 parallel/               server/
display/                plot/                   solve/
exit                    preferences/            surface/
file/                   print-license-usage     views/

> exit 
Posting ANSYS Product Improvement Program performance data 
Done.
Auto-Transcript Stop Time:  19:02:43, 30 Oct 2023 
Total Transcript Time: 43 Minute 51 Second.

Automatic transcript closed.
