/apps/applications/ansys/2023R1/1/default/v231/fluent/fluent23.1.0/bin/fluent -r23.1.0 -t 40 2ddp -g -i /nobackup/scldr/ACRE_copy/CFD_Macro_DBS.scm
/apps/applications/ansys/2023R1/1/default/v231/fluent/fluent23.1.0/cortex/lnamd64/cortex.23.1.0 -f fluent -g -i /nobackup/scldr/ACRE_copy/CFD_Macro_DBS.scm (fluent "2ddp -pshmem  -host -r23.1.0 -t40 -mpi=intel -path/apps/applications/ansys/2023R1/1/default/v231/fluent -ssh")

Opening input/output transcript to file "/nobackup/scldr/ACRE_copy/fluent-20231030-182350-128998.trn".
Auto-Transcript Start Time:  18:23:50, 30 Oct 2023 
/apps/applications/ansys/2023R1/1/default/v231/fluent/fluent23.1.0/bin/fluent -r23.1.0 2ddp -pshmem -host -t40 -mpi=intel -path/apps/applications/ansys/2023R1/1/default/v231/fluent -ssh -cx d13s9b3.arc4.leeds.ac.uk:40805:41551
Starting /apps/applications/ansys/2023R1/1/default/v231/fluent/fluent23.1.0/lnamd64/2ddp_host/fluent.23.1.0 host -cx d13s9b3.arc4.leeds.ac.uk:40805:41551 "(list (rpsetvar (QUOTE parallel/function) "fluent 2ddp -flux -node -r23.1.0 -t40 -pshmem -mpi=intel -ssh") (rpsetvar (QUOTE parallel/rhost) "") (rpsetvar (QUOTE parallel/ruser) "") (rpsetvar (QUOTE parallel/nprocs_string) "40") (rpsetvar (QUOTE parallel/auto-spawn?) #t) (rpsetvar (QUOTE parallel/trace-level) 0) (rpsetvar (QUOTE parallel/remote-shell) 1) (rpsetvar (QUOTE parallel/path) "/apps/applications/ansys/2023R1/1/default/v231/fluent") (rpsetvar (QUOTE parallel/hostsfile) "") (rpsetvar (QUOTE gpuapp/devices) ""))"

              Welcome to ANSYS Fluent 2023 R1

              Copyright 1987-2023 ANSYS, Inc. All Rights Reserved.
              Unauthorized use, distribution or duplication is prohibited.
              This product is subject to U.S. laws governing export and re-export.
              For full Legal Notice, see documentation.

Build Time: Nov 28 2022 09:30:44 EST  Build Id: 10208  
 
Connected License Server List:	1055@ansys-research.leeds.ac.uk

     --------------------------------------------------------------
     This is an academic version of ANSYS FLUENT. Usage of this product
     license is limited to the terms and conditions specified in your ANSYS
     license form, additional terms section.
     --------------------------------------------------------------
Host spawning Node 0 on machine "d13s9b3.arc4.leeds.ac.uk" (unix).
/apps/applications/ansys/2023R1/1/default/v231/fluent/fluent23.1.0/bin/fluent -r23.1.0 2ddp -flux -node -t40 -pshmem -mpi=intel -ssh -mport 10.12.170.20:10.12.170.20:37765:0
Starting /apps/applications/ansys/2023R1/1/default/v231/fluent/fluent23.1.0/multiport/mpi/lnamd64/intel2021/bin/mpirun --rsh=ssh -f /tmp/fluent-appfile.scldr.129383 -genv FI_PROVIDER tcp -genv FLUENT_ARCH lnamd64 -genv I_MPI_DEBUG 0 -genv I_MPI_ADJUST_REDUCE 2 -genv I_MPI_ADJUST_ALLREDUCE 2 -genv I_MPI_ADJUST_BCAST 8 -genv I_MPI_ADJUST_BARRIER 2 -genv I_MPI_ADJUST_ALLGATHER 2 -genv I_MPI_ADJUST_GATHER 2 -genv I_MPI_ADJUST_ALLTOALL 1 -genv I_MPI_ADJUST_SCATTER 2 -genv I_MPI_ADJUST_SCATTERV 2 -genv I_MPI_ADJUST_ALLGATHERV 2 -genv I_MPI_ADJUST_GATHERV 2 -genv I_MPI_PLATFORM auto -genv PYTHONHOME /apps/applications/ansys/2023R1/1/default/v231/fluent/fluent23.1.0/../../commonfiles/CPython/3_7/linx64/Release/python -genv FLUENT_PROD_DIR /apps/applications/ansys/2023R1/1/default/v231/fluent/fluent23.1.0 -genv FLUENT_AFFINITY 0 -genv I_MPI_PIN enable -genv KMP_AFFINITY disabled -n 40 /apps/applications/ansys/2023R1/1/default/v231/fluent/fluent23.1.0/lnamd64/2ddp_node/fluent_mpi.23.1.0 node -mpiw intel -pic shmem -mport 10.12.170.20:10.12.170.20:37765:0

-----------------------------------------------------------------------------------------
ID     Hostname              Core   O.S.      PID            Vendor                     
-----------------------------------------------------------------------------------------
n0-39  d13s9b3.arc4.leeds.a  40/40  Linux-64  129436-129475  Intel(R) Xeon(R) Gold 6230 
host   d13s9b3.arc4.leeds.a         Linux-64  129193         Intel(R) Xeon(R) Gold 6230 

MPI Option Selected: intel
Selected system interconnect: shared-memory
-----------------------------------------------------------------------------------------


Initializing SGE
Done.
Cleanup script file is /nobackup/scldr/ACRE_copy/cleanup-fluent-d13s9b3.arc4.leeds.ac.uk-129193.sh

Posting ANSYS Product Improvement Program startup data
Done.

Reading journal file /nobackup/scldr/ACRE_copy/CFD_Macro_DBS.scm...

> (ti-menu-load-string (format #f "file/read-case /nobackup/scldr/ACRE_copy/M4_N2_295K_Pin_4830_Pout_23_Bham_DBS_Implicit_25/Mesh.msh ok"))
file/read-case /nobackup/scldr/ACRE_copy/M4_N2_295K_Pin_4830_Pout_23_Bham_DBS_Implicit_25/Mesh.msh 
Reading "/nobackup/scldr/ACRE_copy/M4_N2_295K_Pin_4830_Pout_23_Bham_DBS_Implicit_25/Mesh.msh"...

Buffering for file scan...

 1428659 nodes.
 1425150 quadrilateral cells, zone 14.
 2846792 2D interior faces, zone 15.
      31 2D pressure-inlet faces, zone 16.
     462 2D wall faces, zone 17.
     640 2D wall faces, zone 18.
     488 2D wall faces, zone 19.
    1943 2D wall faces, zone 20.
     652 2D wall faces, zone 21.
    2786 2D axis faces, zone 22.
      14 2D pressure-outlet faces, zone 23.

Building...
     mesh
	auto partitioning mesh by Metis (fast),
	distributing mesh
		parts........................................,
		faces........................................,
		nodes........................................,
		cells........................................,
        bandwidth reduction using Reverse Cuthill-McKee: 32145/208 = 154.543
     materials,
     interface,
     domains,
     zones,
	outlet
	axis
	right_reactor_wall
	top_reactor_wall
	left_reactor_wall
	nozzle_wall
	reservoir_wall
	inlet
	int_fluid
	fluid
     parallel,
Done.
Warning: The use of axis boundary conditions is not appropriate for
         a 2D/3D flow problem. Please consider changing the zone
         type to symmetry or wall, or the problem to axisymmetric.

Warning: The use of axis boundary conditions is not appropriate for
         a 2D/3D flow problem. Please consider changing the zone
         type to symmetry or wall, or the problem to axisymmetric.

okinvalid command [ok]
#t


> (ti-menu-load-string (format #f "/mesh/scale 0.001 0.001"))
/mesh/scale 0.001 0.001#t


> (ti-menu-load-string (format #f "/define/models/axisymmetric yes"))
/define/models/axisymmetric yes#t


> (ti-menu-load-string (format #f "/define/models/solver/density-based-implicit yes"))
/define/models/solver/density-based-implicit yes#t
; density-based explicit, pressure-based or density-based-implicit
(ti-menu-load-string (format #f "/define/models/energy yes yes yes"))
/define/models/energy yes yes invalid command [yes]
yes#t
  ; enable energy model?, compute viscout energy dissipation?, Including diffusion at inlets?
(ti-menu-load-string (format #f "/define/models/viscous/kw-sst yes"))
/define/models/viscous/kw-sst yes#t


> (ti-menu-load-string (format #f "(rpsetvar' sst-a1 0.31)"))
(rpsetvar' sst-a1 0.31)
sst-a1
#t
  ; 0.31
(ti-menu-load-string (format #f "(rpsetvar' sst-kappa 0.41)"))
(rpsetvar' sst-kappa 0.41)
sst-kappa
#t
; 0.41
(ti-menu-load-string (format #f "(rpsetvar' sst-beta-i2 0.0828)"))
(rpsetvar' sst-beta-i2 0.0828)
sst-beta-i2
#t
 ; 0.0828
(ti-menu-load-string (format #f "(rpsetvar' sst-beta-i1 0.075)"))
(rpsetvar' sst-beta-i1 0.075)
sst-beta-i1
#t
 ; 0.075
(ti-menu-load-string (format #f "(rpsetvar' sst-sig-w2 1.168)"))
(rpsetvar' sst-sig-w2 1.168)
sst-sig-w2
#t
 ; 1.168
(ti-menu-load-string (format #f "(rpsetvar' sst-sig-w1 2)"))
(rpsetvar' sst-sig-w1 2)
sst-sig-w1
#t
 ; 2
(ti-menu-load-string (format #f "(rpsetvar' sst-sig-k2 1)"))
(rpsetvar' sst-sig-k2 1)
sst-sig-k2
#t
 ; 1
(ti-menu-load-string (format #f "(rpsetvar' sst-sig-k1 1.176)"))
(rpsetvar' sst-sig-k1 1.176)
sst-sig-k1
#t
 ; 1.176
(ti-menu-load-string (format #f "/define/materials/copy fluid argon"))
/define/materials/copy fluid argon
argon copied from database.

#t


> (ti-menu-load-string (format #f "/define/boundary-conditions/fluid fluid yes argon no no no no no no no"))
/define/boundary-conditions/fluid (fluid)
fluid yes argon no no no no no no no#t


> (ti-menu-load-string (format #f "/define/materials delete air"))
/define/materials delete air#t


> (ti-menu-load-string (format #f "/define/materials change-create argon argon yes ideal-gas no no yes sutherland three-coefficient-method 2.125e-05 273.11 144.4 no no no"))
/define/materials change-create argon argon argon is a fluid
yes 
Density
ideal-gas no data required.

no no yes 
Viscosity
sutherland three-coefficient-method 2.125e-05 273.11 144.4 
no no no#t


> (ti-menu-load-string (format #f "/define/models/viscous/turb-compressibility no"))
/define/models/viscous/turb-compressibility no#t
 ; Turning compressbility effects off
(ti-menu-load-string (format #f "/define/boundary-conditions/zone-type inlet pressure-inlet"))
/define/boundary-conditions/zone-type inlet pressure-inlet#t


> (ti-menu-load-string (format #f "/define/boundary-conditions/zone-type outlet pressure-outlet"))
/define/boundary-conditions/zone-type outlet pressure-outlet#t


> (ti-menu-load-string (format #f "/define/boundary-conditions/wall left_reactor_wall 0 no 0 no no no 0 no no no no 0 no 0 no 1"))
/define/boundary-conditions/wall (reservoir_wall nozzle_wall left_reactor_wall top_reactor_wall right_reactor_wall)
left_reactor_wall 0 no 0 no no no 0 no no no no 0 no 0 no 1#t


> (ti-menu-load-string (format #f "/define/boundary-conditions/wall nozzle_wall 0 no 0 no no no 0 no no no no 0 no 0 no 1"))
/define/boundary-conditions/wall (reservoir_wall nozzle_wall left_reactor_wall top_reactor_wall right_reactor_wall)
nozzle_wall 0 no 0 no no no 0 no no no no 0 no 0 no 1#t


> (ti-menu-load-string (format #f "/define/boundary-conditions/wall reservoir_wall 0 no 0 no no no 0 no no no no 0 no 0 no 1"))
/define/boundary-conditions/wall (reservoir_wall nozzle_wall left_reactor_wall top_reactor_wall right_reactor_wall)
reservoir_wall 0 no 0 no no no 0 no no no no 0 no 0 no 1#t


> (ti-menu-load-string (format #f "/define/boundary-conditions/wall top_reactor_wall 0 no 0 no no no 0 no no no no 0 no 0 no 1"))
/define/boundary-conditions/wall (reservoir_wall nozzle_wall left_reactor_wall top_reactor_wall right_reactor_wall)
top_reactor_wall 0 no 0 no no no 0 no no no no 0 no 0 no 1#t


> (ti-menu-load-string (format #f "/define/boundary-conditions/wall right_reactor_wall 0 no 0 no no no 0 no no no no 0 no 0 no 1"))
/define/boundary-conditions/wall (reservoir_wall nozzle_wall left_reactor_wall top_reactor_wall right_reactor_wall)
right_reactor_wall 0 no 0 no no no 0 no no no no 0 no 0 no 1#t


> (ti-menu-load-string (format #f "/define/boundary-conditions/pressure-inlet inlet yes no 4830 no 0 no 295 no yes no no yes 1 1"))
/define/boundary-conditions/pressure-inlet (inlet)
inlet yes no 4830 no 0 no 295 no yes no no yes 1 1#t


> (ti-menu-load-string (format #f "/define/boundary-conditions/pressure-outlet outlet yes no 23.3 no 295 no yes no no yes 1 1 yes no no"))
/define/boundary-conditions/pressure-outlet (outlet)
outlet yes no 23.3 no 295 no yes no no yes 1 1 yes no noYou must select one of the Backflow Pressure Specification options.
#t


> (ti-menu-load-string (format #f "/define/operating-conditions/operating-pressure 0"))
/define/operating-conditions/operating-pressure 0#t
 ; |Value in Pa|
(ti-menu-load-string (format #f "/solve/monitors/residual/convergence-criteria 1e-8 1e-8 1e-8 1e-8 1e-8 1e-8"))
/solve/monitors/residual/convergence-criteria 1e-8 1e-8 1e-8 1e-8 1e-8 1e-8#t


> (ti-menu-load-string (format #f "/solve/set/discretization-scheme/amg-c 1"))
/solve/set/discretization-scheme/amg-c 1#t
		; [0 1 4 6] = [First Order, Second Order, QUICK, Third Order]
(ti-menu-load-string (format #f "/solve/set/high-speed-numerics enable? yes"))
/solve/set/high-speed-numerics enable? yes
Enabling adaptive high-speed numerics for all Mach.
  Reducing AMG termination criterion for flow (<0.01)
  Activating divergence prevention
  Activating limiter filter
  Activating high-speed numerics
#t
		; [0 1 4 6] = [First Order, Second Order, QUICK, Third Order]
(ti-menu-load-string (format #f "/solve/set/discretization-scheme/k 1"))
/solve/set/discretization-scheme/k 1#t
		; [0 1 4 6] = [First Order, Second Order, QUICK, Third Order]

(ti-menu-load-string (format #f "/solve/set/discretization-scheme/omega 1"))
/solve/set/discretization-scheme/omega 1#t
		; [0 1 4 6] = [First Order, Second Order, QUICK, Third Order]
(ti-menu-load-string (format #f "/solve/set/courant-number 25"))
/solve/set/courant-number 25#t
 ;
(ti-menu-load-string (format #f "/solve/set/flux-type no 0"))
/solve/set/flux-type Roe-FDS = 0 AUSM = 1 
no Invalid integer.
0#t
 				; [0 1], Rhie-Chow Distance, Rhie-Chow momentum

(ti-menu-load-string (format #f "/solve/set/warped-face-gradient-correction enable? yes no"))
/solve/set/warped-face-gradient-correction enable? yes  
 Warped-Face Gradient Correction enabled. 
 Options:
 Fast mode 
 Memory saving mode 
no
 Memory saving mode will be used.#t
 ;

;This is just to help convergence, i have left relaxation parameters as default and it seems to converge fine.
(ti-menu-load-string (format #f "/solve/set/high-order-term-relaxation enable? yes"))
/solve/set/high-order-term-relaxation enable? yes#t
; 
; This sets pseudo transient using automating conservative timestepping with a timestep factor of 0.5. This acts as under-relaxation.


adjoint/                mesh/                   report/
define/                 parallel/               server/
display/                plot/                   solve/
exit                    preferences/            surface/
file/                   print-license-usage     views/

> ; setup report definitions
(ti-menu-load-string (format #f "/solve/report-definitions add max-mach surface-vertexmax field mach-number surface-names axis"))
/solve/report-definitions add max-mach surface-vertexmax field mach-number surface-names axis#t
;
(ti-menu-load-string (format #f "/solve/report-files/add max-mach report-defs max-mach"))
/solve/report-files/add max-mach report-defs max-mach#t
;

(ti-menu-load-string (format #f "/solve/report-definitions add min-temp surface-vertexmin field temperature surface-names axis"))
/solve/report-definitions add min-temp surface-vertexmin field temperature surface-names axis#t
;
(ti-menu-load-string (format #f "/solve/report-files/add min-temp report-defs min-temp"))
/solve/report-files/add min-temp report-defs min-temp#t
;

(ti-menu-load-string (format #f "/solve/report-files/edit max-mach file-name M4_N2_295K_Pin_4830_Pout_23_Bham_DBS_Implicit_25/max-mach-convergence.txt"))
/solve/report-files/edit max-mach file-name M4_N2_295K_Pin_4830_Pout_23_Bham_DBS_Implicit_25/max-mach-convergence.txt#t


> (ti-menu-load-string (format #f "/solve/report-files/edit min-temp file-name M4_N2_295K_Pin_4830_Pout_23_Bham_DBS_Implicit_25/min-temp-convergence.txt"))
/solve/report-files/edit min-temp file-name M4_N2_295K_Pin_4830_Pout_23_Bham_DBS_Implicit_25/min-temp-convergence.txt#t


> 
adjoint/                mesh/                   report/
define/                 parallel/               server/
display/                plot/                   solve/
exit                    preferences/            surface/
file/                   print-license-usage     views/

> 
adjoint/                mesh/                   report/
define/                 parallel/               server/
display/                plot/                   solve/
exit                    preferences/            surface/
file/                   print-license-usage     views/

> ; Initialisation settings and number of itterations
(ti-menu-load-string (format #f "/solve/init/hyb-initialization"))
/solve/init/hyb-initialization
Initialize using the hybrid initialization method.

Checking case topology... 
-This case has both inlets & outlets 
-Pressure information is available at the boundaries

	iter		scalar-0		scalar-1

	1		1.000000e+00	1.000000e+00
	2		7.747129e-07	1.645191e-06
	3		9.107082e-08	2.232068e-07
	4		9.859456e-09	2.224889e-08
	5		2.107937e-09	6.533054e-09
	6		7.331453e-10	2.015775e-09
	7		2.151370e-10	6.208325e-10
	8		5.362742e-11	2.246936e-10
	9		1.909382e-11	7.051513e-11
	10		5.830100e-12	2.739427e-11

Hybrid initialization is done.
#t


> (ti-menu-load-string (format #f "solve init fmg y"))
solve init fmg y
Creating multigrid levels... 
 Grid Level  0: 1425150 cells, 2853808 faces, 1428659 nodes;  40 clusters
 Grid Level  1: 358493 cells, 1435499 faces, 1428659 nodes;  40 clusters
 Grid Level  1: 358493 cells, 797555 faces,      0 nodes
 Grid Level  2: 104492 cells, 803290 faces, 1428659 nodes;  40 clusters
 Grid Level  2: 104492 cells, 264855 faces,      0 nodes
 Grid Level  3:  32512 cells, 482208 faces, 1428659 nodes;  40 clusters
 Grid Level  3:  32512 cells,  91171 faces,      0 nodes
 Grid Level  4:  10676 cells, 306775 faces, 1428659 nodes;  40 clusters
 Grid Level  4:  10676 cells,  33243 faces,      0 nodes
 Grid Level  5:   3624 cells, 201307 faces, 1428659 nodes;  40 clusters
 Grid Level  5:   3624 cells,  13347 faces,      0 nodes
Done.


FMG: Converge FAS on level 5


FMG: Converge FAS on level 4


FMG: Converge FAS on level 3


FMG: Converge FAS on level 2


FMG: Converge FAS on level 1
0.
 time step reduced in 70 cells due to excessive temperature change
 time step reduced in 11 cells due to excessive pressure change
->1.->2.->3.->4.->5.<<<<<
#t


> 
adjoint/                mesh/                   report/
define/                 parallel/               server/
display/                plot/                   solve/
exit                    preferences/            surface/
file/                   print-license-usage     views/

> (ti-menu-load-string (format #f "/mesh/adapt/cell-registers/add yplusrefine type yplus-ystar max-allowed 0.5 min-allowed 0.25 q () q () q ()"))
/mesh/adapt/cell-registers/add yplusrefine type yplus-ystar max-allowed 0.5 min-allowed 0.25 q ()
 q ()
()
 q ()
()
#t


> 
adjoint/                mesh/                   report/
define/                 parallel/               server/
display/                plot/                   solve/
exit                    preferences/            surface/
file/                   print-license-usage     views/

> (ti-menu-load-string (format #f "/mesh/adapt/manage-criteria/add criteria1 type expression refinement-expression \"yplusrefine\" "))
/mesh/adapt/manage-criteria/add criteria1 type expression refinement-expression "yplusrefine" #t


> (ti-menu-load-string (format #f "/mesh/adapt/manage-criteria/edit criteria1 frequency 250"))
/mesh/adapt/manage-criteria/edit criteria1 frequency 250#t


> (ti-menu-load-string (format #f "/mesh/adapt/adapt-mesh"))
/mesh/adapt/adapt-mesh#t


> (ti-menu-load-string (format #f "/solve/iterate 50"))
/solve/iterate 50
  iter  continuity  x-velocity  y-velocity      energy           k       omega     time/iter

Adapting mesh...
done.
 time step reduced in 279 cells due to excessive pressure change
     1  1.0000e+00  1.0000e+00  1.0000e+00  1.0000e+00  6.3902e-01  1.6663e-01  0:01:19   49
 time step reduced in 329 cells due to excessive pressure change
     2  7.9572e-01  5.0051e-01  6.1304e-01  6.9340e-01  4.5982e-01  4.2642e-01  0:01:10   48
 time step reduced in 1255 cells due to excessive pressure change
     3  5.1286e-01  1.8977e-01  2.3636e-01  4.0638e-01  2.1691e-01  1.7571e-01  0:01:03   47
 time step reduced in 888 cells due to excessive pressure change
     4  3.2310e-01  7.7142e-02  8.2806e-02  2.3441e-01  7.0254e-02  1.1039e-01  0:00:57   46
 time step reduced in 339 cells due to excessive pressure change
     5  2.1444e-01  3.8016e-02  3.6569e-02  1.4946e-01  2.0668e-02  7.2941e-02  0:00:52   45
 time step reduced in 311 cells due to excessive pressure change
     6  1.5435e-01  2.4652e-02  2.8164e-02  1.0627e-01  7.2856e-03  4.9894e-02  0:00:48   44

 time step reduced in 2 cells due to excessive temperature change
 time step reduced in 248 cells due to excessive pressure change
     7  1.2002e-01  1.9168e-02  2.4937e-02  8.2627e-02  3.4668e-03  3.4888e-02  0:00:44   43

 time step reduced in 3 cells due to excessive temperature change
 time step reduced in 131 cells due to excessive pressure change
     8  9.9018e-02  1.6198e-02  2.2539e-02  6.8406e-02  2.2422e-03  2.4575e-02  0:00:41   42

 time step reduced in 2 cells due to excessive temperature change
 time step reduced in 58 cells due to excessive pressure change
     9  8.5268e-02  1.4228e-02  2.0611e-02  5.9132e-02  1.7124e-03  1.7640e-02  0:00:39   41
 time step reduced in 31 cells due to excessive pressure change
    10  7.5491e-02  1.2758e-02  1.9044e-02  5.2543e-02  1.4278e-03  1.2970e-02  0:00:37   40
 time step reduced in 1 cells due to excessive pressure change
    11  6.8304e-02  1.1598e-02  1.7839e-02  4.7555e-02  1.2477e-03  9.7684e-03  0:00:35   39
 time step reduced in 2 cells due to excessive pressure change

  iter  continuity  x-velocity  y-velocity      energy           k       omega     time/iter
    12  6.2227e-02  1.0645e-02  1.6882e-02  4.3502e-02  1.1218e-03  7.5920e-03  0:00:34   38
    13  5.7614e-02  9.8848e-03  1.6058e-02  4.0374e-02  1.0270e-03  6.0957e-03  0:00:32   37
    14  5.3513e-02  9.2162e-03  1.5324e-02  3.7630e-02  9.5526e-04  5.0794e-03  0:00:31   36
    15  5.0280e-02  8.7030e-03  1.4632e-02  3.5432e-02  8.9762e-04  4.3831e-03  0:00:30   35
    16  4.7586e-02  8.2264e-03  1.3980e-02  3.3488e-02  8.5342e-04  3.8842e-03  0:00:29   34
    17  4.5566e-02  7.8758e-03  1.3359e-02  3.2022e-02  8.1497e-04  3.4444e-03  0:00:27   33
    18  4.3902e-02  7.5497e-03  1.2822e-02  3.0772e-02  7.8474e-04  3.2059e-03  0:00:26   32
    19  4.2734e-02  7.2959e-03  1.2311e-02  2.9812e-02  7.6141e-04  2.9230e-03  0:00:25   31
    20  4.1718e-02  7.0970e-03  1.1898e-02  2.9036e-02  7.3936e-04  2.7577e-03  0:00:24   30
    21  4.0987e-02  6.9070e-03  1.1541e-02  2.8384e-02  7.2734e-04  2.5635e-03  0:00:23   29
    22  4.0381e-02  6.7757e-03  1.1253e-02  2.7889e-02  7.0904e-04  2.3973e-03  0:00:23   28

  iter  continuity  x-velocity  y-velocity      energy           k       omega     time/iter
    23  3.9937e-02  6.6685e-03  1.1052e-02  2.7517e-02  7.0065e-04  2.2244e-03  0:00:21   27
    24  3.9931e-02  6.6175e-03  1.0922e-02  2.7536e-02  6.8857e-04  2.1160e-03  0:00:21   26
    25  4.0284e-02  6.6617e-03  1.0804e-02  2.7798e-02  6.8605e-04  1.9764e-03  0:00:20   25
    26  4.1820e-02  6.8555e-03  1.0692e-02  2.8883e-02  6.7273e-04  1.8580e-03  0:00:19   24
    27  4.4609e-02  7.3294e-03  1.0374e-02  3.0983e-02  6.6792e-04  1.7389e-03  0:00:18   23
    28  4.6732e-02  7.8821e-03  9.8329e-03  3.2887e-02  6.6214e-04  1.6859e-03  0:00:17   22
    29  4.8788e-02  8.4492e-03  9.1830e-03  3.4657e-02  6.6451e-04  1.5868e-03  0:00:17   21

 time step reduced in 3 cells due to excessive temperature change
    30  4.8392e-02  8.5098e-03  8.4268e-03  3.4794e-02  6.5567e-04  1.5070e-03  0:00:16   20
    31  4.6064e-02  8.1608e-03  8.0205e-03  3.3388e-02  6.6193e-04  1.4378e-03  0:00:15   19
    32  4.2385e-02  7.5106e-03  8.0480e-03  3.0682e-02  6.5671e-04  1.3745e-03  0:00:15   18
    33  3.7967e-02  6.6879e-03  8.2489e-03  2.7198e-02  6.6531e-04  1.3177e-03  0:00:14   17

  iter  continuity  x-velocity  y-velocity      energy           k       omega     time/iter
    34  3.3281e-02  5.7876e-03  8.4070e-03  2.3379e-02  6.5371e-04  1.2665e-03  0:00:13   16
 time step reduced in 6 cells due to excessive pressure change
    35  2.8898e-02  4.9111e-03  8.5826e-03  1.9793e-02  6.5201e-04  1.2209e-03  0:00:12   15
 time step reduced in 12 cells due to excessive pressure change
    36  2.4812e-02  4.0832e-03  8.5815e-03  1.6466e-02  6.5652e-04  1.1813e-03  0:00:11   14
 time step reduced in 11 cells due to excessive pressure change
    37  2.1431e-02  3.3879e-03  8.4116e-03  1.3801e-02  6.6156e-04  1.1477e-03  0:00:11   13
 time step reduced in 13 cells due to excessive pressure change
    38  1.9027e-02  2.8753e-03  8.1278e-03  1.2094e-02  6.5560e-04  1.1190e-03  0:00:10   12
 time step reduced in 19 cells due to excessive pressure change
    39  1.7493e-02  2.5453e-03  7.7408e-03  1.1234e-02  6.6634e-04  1.0979e-03  0:00:09   11
 time step reduced in 25 cells due to excessive pressure change
    40  1.6822e-02  2.4145e-03  7.2842e-03  1.1141e-02  6.6317e-04  1.0814e-03  0:00:08   10
 time step reduced in 31 cells due to excessive pressure change
    41  1.6848e-02  2.4349e-03  6.7926e-03  1.1560e-02  6.8390e-04  1.0695e-03  0:00:07    9
 time step reduced in 40 cells due to excessive pressure change
    42  1.7195e-02  2.5182e-03  6.2966e-03  1.2128e-02  6.7730e-04  1.0597e-03  0:00:07    8
 time step reduced in 55 cells due to excessive pressure change
    43  1.7349e-02  2.5868e-03  5.8211e-03  1.2424e-02  6.8320e-04  1.0539e-03  0:00:06    7
 time step reduced in 56 cells due to excessive pressure change
    44  1.7839e-02  2.7086e-03  5.3852e-03  1.2937e-02  6.8812e-04  1.0542e-03  0:00:05    6
 time step reduced in 61 cells due to excessive pressure change

  iter  continuity  x-velocity  y-velocity      energy           k       omega     time/iter
    45  1.7794e-02  2.7154e-03  4.9888e-03  1.2907e-02  7.0607e-04  1.0580e-03  0:00:04    5
 time step reduced in 53 cells due to excessive pressure change
    46  1.8132e-02  2.8233e-03  4.6191e-03  1.3199e-02  7.0281e-04  1.0636e-03  0:00:03    4
 time step reduced in 57 cells due to excessive pressure change
    47  1.7497e-02  2.6973e-03  4.3029e-03  1.2634e-02  7.1193e-04  1.0722e-03  0:00:03    3
 time step reduced in 45 cells due to excessive pressure change
    48  1.7597e-02  2.7575e-03  4.0220e-03  1.2680e-02  7.1345e-04  1.0849e-03  0:00:02    2
 time step reduced in 34 cells due to excessive pressure change
    49  1.6715e-02  2.5917e-03  3.7633e-03  1.1917e-02  7.3305e-04  1.1039e-03  0:00:01    1
 time step reduced in 26 cells due to excessive pressure change
    50  1.6208e-02  2.4962e-03  3.5290e-03  1.1454e-02  7.3463e-04  1.1284e-03  0:00:00    0
#t


> (ti-menu-load-string (format #f "/mesh/adapt/adapt-mesh"))
/mesh/adapt/adapt-mesh#t


> (ti-menu-load-string (format #f "/solve/iterate 50"))
/solve/iterate 50
  iter  continuity  x-velocity  y-velocity      energy           k       omega     time/iter
    50  1.6208e-02  2.4962e-03  3.5290e-03  1.1454e-02  7.3463e-04  1.1284e-03  0:00:41   50
 time step reduced in 13 cells due to excessive pressure change
    51  1.5739e-02  2.4346e-03  3.3219e-03  1.1013e-02  7.3822e-04  1.1529e-03  0:00:39   49
 time step reduced in 12 cells due to excessive pressure change
    52  1.4750e-02  2.2607e-03  3.1742e-03  1.0214e-02  7.6643e-04  1.1769e-03  0:00:39   48
 time step reduced in 6 cells due to excessive pressure change
    53  1.4040e-02  2.1514e-03  3.0595e-03  9.6469e-03  7.8041e-04  1.2001e-03  0:00:38   47
 time step reduced in 11 cells due to excessive pressure change
    54  1.3164e-02  2.0096e-03  2.9964e-03  8.9546e-03  7.9268e-04  1.2227e-03  0:00:37   46
 time step reduced in 9 cells due to excessive pressure change
    55  1.2374e-02  1.8867e-03  2.9483e-03  8.3454e-03  7.9145e-04  1.2449e-03  0:00:37   45
 time step reduced in 8 cells due to excessive pressure change
    56  1.1627e-02  1.7719e-03  2.9167e-03  7.7733e-03  8.0322e-04  1.2671e-03  0:00:36   44
 time step reduced in 8 cells due to excessive pressure change
    57  1.0965e-02  1.6709e-03  2.9008e-03  7.2667e-03  8.1248e-04  1.2893e-03  0:00:35   43
 time step reduced in 3 cells due to excessive pressure change
    58  1.0356e-02  1.5749e-03  2.9058e-03  6.7940e-03  8.2400e-04  1.3120e-03  0:00:34   42
 time step reduced in 1 cells due to excessive pressure change
    59  9.7889e-03  1.4739e-03  2.8846e-03  6.3392e-03  8.1767e-04  1.3339e-03  0:00:33   41
    60  9.3756e-03  1.3946e-03  2.8924e-03  5.9879e-03  8.2866e-04  1.3555e-03  0:00:32   40

  iter  continuity  x-velocity  y-velocity      energy           k       omega     time/iter
    61  9.1189e-03  1.3395e-03  2.8969e-03  5.7409e-03  8.3539e-04  1.3757e-03  0:00:32   39
 time step reduced in 2 cells due to excessive pressure change
    62  8.8660e-03  1.2695e-03  2.8866e-03  5.4772e-03  8.5054e-04  1.3950e-03  0:00:31   38
    63  8.7283e-03  1.2103e-03  2.8897e-03  5.2905e-03  8.4005e-04  1.4124e-03  0:00:30   37
    64  8.7659e-03  1.1855e-03  2.9208e-03  5.2346e-03  8.5711e-04  1.4283e-03  0:00:29   36
    65  8.8740e-03  1.1719e-03  2.9293e-03  5.2282e-03  8.5986e-04  1.4412e-03  0:00:28   35
    66  8.9280e-03  1.1403e-03  2.9306e-03  5.1793e-03  8.7871e-04  1.4509e-03  0:00:28   34
    67  9.0610e-03  1.1281e-03  2.9526e-03  5.1967e-03  8.6713e-04  1.4563e-03  0:00:27   33
    68  9.2820e-03  1.1420e-03  3.0006e-03  5.2896e-03  8.6472e-04  1.4572e-03  0:00:26   32
    69  9.4906e-03  1.1575e-03  3.0210e-03  5.3789e-03  8.6977e-04  1.4533e-03  0:00:25   31
    70  9.6325e-03  1.1645e-03  3.0662e-03  5.4266e-03  8.9233e-04  1.4445e-03  0:00:24   30
    71  9.7998e-03  1.1848e-03  3.1363e-03  5.5069e-03  8.8798e-04  1.4326e-03  0:00:24   29
 time step reduced in 4 cells due to excessive pressure change

  iter  continuity  x-velocity  y-velocity      energy           k       omega     time/iter
    72  1.0011e-02  1.2225e-03  3.2127e-03  5.6240e-03  9.2471e-04  1.4179e-03  0:00:23   28
    73  1.0119e-02  1.2463e-03  3.2567e-03  5.6684e-03  9.3165e-04  1.3991e-03  0:00:22   27
 time step reduced in 4 cells due to excessive pressure change
    74  1.0293e-02  1.2831e-03  3.3748e-03  5.7682e-03  9.5593e-04  1.3768e-03  0:00:21   26
    75  1.0421e-02  1.3140e-03  3.4452e-03  5.8314e-03  9.4328e-04  1.3518e-03  0:00:20   25
 time step reduced in 2 cells due to excessive pressure change
    76  1.0505e-02  1.3439e-03  3.4757e-03  5.8630e-03  9.6946e-04  1.3276e-03  0:00:19   24
    77  1.0683e-02  1.3881e-03  3.5983e-03  5.9669e-03  9.7608e-04  1.3046e-03  0:00:19   23
    78  1.0722e-02  1.4068e-03  3.6352e-03  5.9660e-03  1.0017e-03  1.2847e-03  0:00:18   22
    79  1.0893e-02  1.4459e-03  3.7237e-03  6.0626e-03  9.9040e-04  1.2675e-03  0:00:17   21
    80  1.1052e-02  1.4830e-03  3.7867e-03  6.1395e-03  9.8881e-04  1.2542e-03  0:00:16   20
    81  1.1197e-02  1.5129e-03  3.8785e-03  6.2108e-03  9.9921e-04  1.2445e-03  0:00:15   19
    82  1.1368e-02  1.5420e-03  3.9618e-03  6.2933e-03  1.0279e-03  1.2370e-03  0:00:15   18

  iter  continuity  x-velocity  y-velocity      energy           k       omega     time/iter
    83  1.1578e-02  1.5782e-03  4.0169e-03  6.4008e-03  1.0255e-03  1.2305e-03  0:00:14   17
 time step reduced in 4 cells due to excessive pressure change
    84  1.1785e-02  1.6071e-03  4.1080e-03  6.4953e-03  1.0761e-03  1.2252e-03  0:00:13   16
    85  1.2047e-02  1.6396e-03  4.2218e-03  6.6368e-03  1.0912e-03  1.2197e-03  0:00:12   15
 time step reduced in 4 cells due to excessive pressure change
    86  1.2284e-02  1.6714e-03  4.2766e-03  6.7465e-03  1.1216e-03  1.2147e-03  0:00:11   14
    87  1.2609e-02  1.7068e-03  4.4040e-03  6.9153e-03  1.1160e-03  1.2095e-03  0:00:11   13
    88  1.3005e-02  1.7535e-03  4.4966e-03  7.1373e-03  1.1402e-03  1.2050e-03  0:00:10   12
    89  1.3256e-02  1.7802e-03  4.5726e-03  7.2411e-03  1.1501e-03  1.2000e-03  0:00:09   11
 time step reduced in 2 cells due to excessive pressure change
    90  1.3486e-02  1.7901e-03  4.6510e-03  7.3317e-03  1.2020e-03  1.1957e-03  0:00:08   10
    91  1.3947e-02  1.8503e-03  4.7715e-03  7.5905e-03  1.2064e-03  1.1909e-03  0:00:07    9
    92  1.4437e-02  1.8999e-03  4.8663e-03  7.8624e-03  1.2437e-03  1.1869e-03  0:00:07    8
    93  1.4747e-02  1.9305e-03  4.9448e-03  8.0106e-03  1.2752e-03  1.1826e-03  0:00:06    7

  iter  continuity  x-velocity  y-velocity      energy           k       omega     time/iter
    94  1.4935e-02  1.9388e-03  5.0354e-03  8.0647e-03  1.3130e-03  1.1789e-03  0:00:05    6
    95  1.5528e-02  2.0156e-03  5.1052e-03  8.4305e-03  1.3258e-03  1.1753e-03  0:00:04    5
    96  1.5793e-02  2.0354e-03  5.1917e-03  8.5445e-03  1.3411e-03  1.1728e-03  0:00:03    4
    97  1.6185e-02  2.0889e-03  5.2472e-03  8.7866e-03  1.3714e-03  1.1711e-03  0:00:03    3
    98  1.6337e-02  2.0940e-03  5.2910e-03  8.8242e-03  1.4276e-03  1.1705e-03  0:00:02    2
    99  1.6587e-02  2.1285e-03  5.3149e-03  8.9830e-03  1.4549e-03  1.1704e-03  0:00:01    1
 time step reduced in 4 cells due to excessive pressure change
   100  1.6907e-02  2.1656e-03  5.3763e-03  9.1487e-03  1.5336e-03  1.1720e-03  0:00:00    0
#t


> (ti-menu-load-string (format #f "/mesh/adapt/adapt-mesh"))
/mesh/adapt/adapt-mesh#t


> (ti-menu-load-string (format #f "/solve/iterate 50"))
/solve/iterate 50
  iter  continuity  x-velocity  y-velocity      energy           k       omega     time/iter
   100  1.6907e-02  2.1656e-03  5.3763e-03  9.1487e-03  1.5336e-03  1.1720e-03  0:00:42   50
   101  1.6926e-02  2.1658e-03  5.3772e-03  9.1575e-03  1.5867e-03  1.1737e-03  0:00:40   49
 time step reduced in 4 cells due to excessive pressure change
   102  1.7204e-02  2.2029e-03  5.4059e-03  9.3378e-03  1.6416e-03  1.1766e-03  0:00:39   48
   103  1.7354e-02  2.2211e-03  5.4416e-03  9.4160e-03  1.6738e-03  1.1799e-03  0:00:38   47
   104  1.7270e-02  2.2138e-03  5.3748e-03  9.3630e-03  1.7264e-03  1.1846e-03  0:00:37   46
 time step reduced in 1 cells due to excessive pressure change
   105  1.7438e-02  2.2397e-03  5.3950e-03  9.4733e-03  1.7762e-03  1.1895e-03  0:00:37   45
 time step reduced in 14 cells due to excessive pressure change
   106  1.7427e-02  2.2334e-03  5.3788e-03  9.4544e-03  1.8564e-03  1.1955e-03  0:00:36   44
 time step reduced in 31 cells due to excessive pressure change
   107  1.7336e-02  2.2264e-03  5.3339e-03  9.3960e-03  1.8990e-03  1.2012e-03  0:00:36   43
 time step reduced in 43 cells due to excessive pressure change
   108  1.7363e-02  2.2383e-03  5.2977e-03  9.4251e-03  1.9666e-03  1.2079e-03  0:00:36   42
 time step reduced in 43 cells due to excessive pressure change
   109  1.7243e-02  2.2134e-03  5.2714e-03  9.3347e-03  2.0340e-03  1.2144e-03  0:00:35   41
 time step reduced in 77 cells due to excessive pressure change
   110  1.7131e-02  2.2041e-03  5.2331e-03  9.2595e-03  2.1011e-03  1.2215e-03  0:00:33   40

 time step reduced in 16 cells due to excessive temperature change
 time step reduced in 129 cells due to excessive pressure change

  iter  continuity  x-velocity  y-velocity      energy           k       omega     time/iter
   111  1.7061e-02  2.2053e-03  5.1582e-03  9.2341e-03  2.1473e-03  1.2280e-03  0:00:32   39

 time step reduced in 16 cells due to excessive temperature change
 time step reduced in 164 cells due to excessive pressure change
   112  1.6917e-02  2.1808e-03  5.1345e-03  9.1280e-03  2.1951e-03  1.2349e-03  0:00:31   38

 time step reduced in 91 cells due to excessive temperature change
 time step reduced in 193 cells due to excessive pressure change
   113  1.6735e-02  2.1640e-03  5.0744e-03  9.0132e-03  2.2437e-03  1.2417e-03  0:00:31   37

 time step reduced in 107 cells due to excessive temperature change
 time step reduced in 204 cells due to excessive pressure change
   114  1.6733e-02  2.1770e-03  5.0335e-03  9.0458e-03  2.3326e-03  1.2489e-03  0:00:31   36

 time step reduced in 126 cells due to excessive temperature change
 time step reduced in 216 cells due to excessive pressure change
   115  1.6491e-02  2.1428e-03  4.9904e-03  8.8558e-03  2.3959e-03  1.2557e-03  0:00:30   35

 time step reduced in 126 cells due to excessive temperature change
 time step reduced in 197 cells due to excessive pressure change
   116  1.6391e-02  2.1536e-03  4.9034e-03  8.8072e-03  2.4803e-03  1.2626e-03  0:00:28   34

 time step reduced in 112 cells due to excessive temperature change
 time step reduced in 173 cells due to excessive pressure change
   117  1.6131e-02  2.1148e-03  4.8731e-03  8.6143e-03  2.5479e-03  1.2680e-03  0:00:27   33

 time step reduced in 99 cells due to excessive temperature change
 time step reduced in 152 cells due to excessive pressure change
   118  1.5873e-02  2.0813e-03  4.7914e-03  8.4498e-03  2.6153e-03  1.2730e-03  0:00:27   32

 time step reduced in 81 cells due to excessive temperature change
 time step reduced in 130 cells due to excessive pressure change
   119  1.5741e-02  2.0643e-03  4.7617e-03  8.3617e-03  2.6569e-03  1.2767e-03  0:00:26   31

 time step reduced in 60 cells due to excessive temperature change
 time step reduced in 113 cells due to excessive pressure change
   120  1.5437e-02  2.0365e-03  4.6902e-03  8.1702e-03  2.7243e-03  1.2806e-03  0:00:25   30

 time step reduced in 53 cells due to excessive temperature change
 time step reduced in 99 cells due to excessive pressure change
   121  1.5506e-02  2.0769e-03  4.6456e-03  8.2545e-03  2.7790e-03  1.2834e-03  0:00:24   29

 time step reduced in 43 cells due to excessive temperature change
 time step reduced in 79 cells due to excessive pressure change

  iter  continuity  x-velocity  y-velocity      energy           k       omega     time/iter
   122  1.5089e-02  2.0237e-03  4.5835e-03  7.9953e-03  2.8390e-03  1.2860e-03  0:00:23   28

 time step reduced in 35 cells due to excessive temperature change
 time step reduced in 63 cells due to excessive pressure change
   123  1.5033e-02  2.0424e-03  4.5101e-03  7.9958e-03  2.8702e-03  1.2875e-03  0:00:22   27

 time step reduced in 18 cells due to excessive temperature change
 time step reduced in 45 cells due to excessive pressure change
   124  1.4662e-02  2.0041e-03  4.4469e-03  7.8108e-03  2.9108e-03  1.2891e-03  0:00:21   26

 time step reduced in 8 cells due to excessive temperature change
 time step reduced in 27 cells due to excessive pressure change
   125  1.4401e-02  1.9795e-03  4.3600e-03  7.6702e-03  2.9376e-03  1.2903e-03  0:00:20   25
 time step reduced in 11 cells due to excessive pressure change
   126  1.4319e-02  1.9999e-03  4.3228e-03  7.7261e-03  3.0107e-03  1.2912e-03  0:00:20   24
   127  1.4009e-02  1.9765e-03  4.2553e-03  7.5804e-03  3.0367e-03  1.2914e-03  0:00:19   23
   128  1.3743e-02  1.9611e-03  4.1583e-03  7.4772e-03  3.0728e-03  1.2919e-03  0:00:18   22
   129  1.3542e-02  1.9617e-03  4.0848e-03  7.4498e-03  3.1048e-03  1.2919e-03  0:00:17   21
   130  1.3269e-02  1.9321e-03  4.0418e-03  7.3295e-03  3.1321e-03  1.2917e-03  0:00:16   20
   131  1.3094e-02  1.9189e-03  3.9257e-03  7.2840e-03  3.1401e-03  1.2909e-03  0:00:15   19
   132  1.2787e-02  1.8858e-03  3.9065e-03  7.1291e-03  3.1572e-03  1.2906e-03  0:00:15   18

  iter  continuity  x-velocity  y-velocity      energy           k       omega     time/iter
   133  1.2535e-02  1.8462e-03  3.8624e-03  6.9960e-03  3.1662e-03  1.2899e-03  0:00:14   17
   134  1.2417e-02  1.8337e-03  3.7639e-03  6.9591e-03  3.1913e-03  1.2892e-03  0:00:13   16
   135  1.2227e-02  1.8143e-03  3.7714e-03  6.8784e-03  3.1876e-03  1.2879e-03  0:00:12   15
   136  1.1985e-02  1.7740e-03  3.7645e-03  6.7456e-03  3.1932e-03  1.2871e-03  0:00:11   14
   137  1.1865e-02  1.7594e-03  3.6302e-03  6.6929e-03  3.1974e-03  1.2858e-03  0:00:11   13
   138  1.1767e-02  1.7507e-03  3.6554e-03  6.6694e-03  3.1940e-03  1.2846e-03  0:00:10   12
   139  1.1448e-02  1.7008e-03  3.6523e-03  6.4750e-03  3.1783e-03  1.2829e-03  0:00:09   11
   140  1.1320e-02  1.6774e-03  3.5791e-03  6.4151e-03  3.1611e-03  1.2815e-03  0:00:08   10
   141  1.1264e-02  1.6691e-03  3.5398e-03  6.4062e-03  3.1426e-03  1.2801e-03  0:00:07    9
 time step reduced in 3 cells due to excessive pressure change
   142  1.1063e-02  1.6386e-03  3.5651e-03  6.3004e-03  3.1528e-03  1.2787e-03  0:00:07    8
   143  1.0741e-02  1.5823e-03  3.5282e-03  6.0993e-03  3.1370e-03  1.2769e-03  0:00:06    7

  iter  continuity  x-velocity  y-velocity      energy           k       omega     time/iter
   144  1.0626e-02  1.5593e-03  3.4740e-03  6.0383e-03  3.1224e-03  1.2755e-03  0:00:05    6
   145  1.0578e-02  1.5503e-03  3.4511e-03  6.0236e-03  3.1154e-03  1.2739e-03  0:00:04    5
   146  1.0393e-02  1.5175e-03  3.4686e-03  5.9172e-03  3.0974e-03  1.2722e-03  0:00:03    4
   147  1.0120e-02  1.4691e-03  3.4248e-03  5.7385e-03  3.0759e-03  1.2703e-03  0:00:02    3
   148  1.0021e-02  1.4484e-03  3.4011e-03  5.6812e-03  3.0568e-03  1.2688e-03  0:00:02    2
   149  1.0008e-02  1.4437e-03  3.3669e-03  5.6777e-03  3.0375e-03  1.2669e-03  0:00:01    1
   150  9.9899e-03  1.4376e-03  3.3640e-03  5.6787e-03  3.0246e-03  1.2654e-03  0:00:00    0
#t


> (ti-menu-load-string (format #f "/mesh/adapt/adapt-mesh"))
/mesh/adapt/adapt-mesh#t


> (ti-menu-load-string (format #f "/solve/iterate 50"))
/solve/iterate 50
  iter  continuity  x-velocity  y-velocity      energy           k       omega     time/iter
   150  9.9899e-03  1.4376e-03  3.3640e-03  5.6787e-03  3.0246e-03  1.2654e-03  0:00:41   50
   151  9.8058e-03  1.4058e-03  3.3489e-03  5.5529e-03  3.0104e-03  1.2637e-03  0:00:39   49
 time step reduced in 2 cells due to excessive pressure change
   152  9.6899e-03  1.3856e-03  3.3523e-03  5.4802e-03  2.9845e-03  1.2614e-03  0:00:38   48
 time step reduced in 41 cells due to excessive pressure change
   153  9.6735e-03  1.3808e-03  3.3039e-03  5.4650e-03  2.9824e-03  1.2599e-03  0:00:38   47
 time step reduced in 72 cells due to excessive pressure change
   154  9.7060e-03  1.3816e-03  3.2710e-03  5.4930e-03  2.9833e-03  1.2581e-03  0:00:37   46
 time step reduced in 96 cells due to excessive pressure change
   155  9.7396e-03  1.3890e-03  3.2833e-03  5.5180e-03  2.9643e-03  1.2564e-03  0:00:36   45
 time step reduced in 118 cells due to excessive pressure change
   156  9.5771e-03  1.3643e-03  3.3279e-03  5.4040e-03  2.9471e-03  1.2544e-03  0:00:35   44
 time step reduced in 131 cells due to excessive pressure change
   157  9.5412e-03  1.3566e-03  3.2736e-03  5.3696e-03  2.9283e-03  1.2526e-03  0:00:35   43
 time step reduced in 136 cells due to excessive pressure change
   158  9.5622e-03  1.3548e-03  3.2365e-03  5.3832e-03  2.9172e-03  1.2509e-03  0:00:34   42
 time step reduced in 149 cells due to excessive pressure change
   159  9.6493e-03  1.3736e-03  3.2163e-03  5.4427e-03  2.9106e-03  1.2493e-03  0:00:33   41
 time step reduced in 155 cells due to excessive pressure change
   160  9.6846e-03  1.3786e-03  3.2788e-03  5.4582e-03  2.8953e-03  1.2472e-03  0:00:32   40
 time step reduced in 153 cells due to excessive pressure change

  iter  continuity  x-velocity  y-velocity      energy           k       omega     time/iter
   161  9.6900e-03  1.3786e-03  3.2748e-03  5.4439e-03  2.8931e-03  1.2459e-03  0:00:32   39
 time step reduced in 152 cells due to excessive pressure change
   162  9.6978e-03  1.3757e-03  3.2205e-03  5.4377e-03  2.8945e-03  1.2443e-03  0:00:31   38
 time step reduced in 147 cells due to excessive pressure change
   163  9.7682e-03  1.3916e-03  3.2071e-03  5.4777e-03  2.8831e-03  1.2429e-03  0:00:30   37
 time step reduced in 142 cells due to excessive pressure change
   164  9.8336e-03  1.4043e-03  3.2242e-03  5.5079e-03  2.8700e-03  1.2415e-03  0:00:29   36
 time step reduced in 139 cells due to excessive pressure change
   165  9.9226e-03  1.4135e-03  3.2759e-03  5.5493e-03  2.8542e-03  1.2404e-03  0:00:29   35
 time step reduced in 133 cells due to excessive pressure change
   166  9.9259e-03  1.4097e-03  3.2286e-03  5.5319e-03  2.8471e-03  1.2399e-03  0:00:28   34
 time step reduced in 126 cells due to excessive pressure change
   167  1.0051e-02  1.4373e-03  3.2240e-03  5.6081e-03  2.8435e-03  1.2397e-03  0:00:27   33
 time step reduced in 115 cells due to excessive pressure change
   168  1.0120e-02  1.4524e-03  3.2135e-03  5.6386e-03  2.8327e-03  1.2395e-03  0:00:26   32

 time step reduced in 1 cells due to excessive temperature change
 time step reduced in 108 cells due to excessive pressure change
   169  1.0226e-02  1.4632e-03  3.2558e-03  5.6962e-03  2.8285e-03  1.2403e-03  0:00:25   31

 time step reduced in 2 cells due to excessive temperature change
 time step reduced in 101 cells due to excessive pressure change
   170  1.0288e-02  1.4719e-03  3.2235e-03  5.7255e-03  2.8261e-03  1.2411e-03  0:00:24   30

 time step reduced in 3 cells due to excessive temperature change
 time step reduced in 92 cells due to excessive pressure change
   171  1.0369e-02  1.4887e-03  3.2078e-03  5.7766e-03  2.8224e-03  1.2421e-03  0:00:24   29

 time step reduced in 2 cells due to excessive temperature change
 time step reduced in 85 cells due to excessive pressure change

  iter  continuity  x-velocity  y-velocity      energy           k       omega     time/iter
   172  1.0383e-02  1.4977e-03  3.1859e-03  5.7783e-03  2.8235e-03  1.2437e-03  0:00:23   28

 time step reduced in 2 cells due to excessive temperature change
 time step reduced in 74 cells due to excessive pressure change
   173  1.0491e-02  1.5132e-03  3.2280e-03  5.8586e-03  2.8185e-03  1.2451e-03  0:00:22   27

 time step reduced in 2 cells due to excessive temperature change
 time step reduced in 64 cells due to excessive pressure change
   174  1.0490e-02  1.5175e-03  3.2194e-03  5.8576e-03  2.8095e-03  1.2460e-03  0:00:21   26

 time step reduced in 2 cells due to excessive temperature change
 time step reduced in 58 cells due to excessive pressure change
   175  1.0409e-02  1.5109e-03  3.2076e-03  5.8117e-03  2.8051e-03  1.2471e-03  0:00:20   25

 time step reduced in 2 cells due to excessive temperature change
 time step reduced in 49 cells due to excessive pressure change
   176  1.0369e-02  1.5146e-03  3.1740e-03  5.7946e-03  2.7982e-03  1.2479e-03  0:00:20   24
 time step reduced in 43 cells due to excessive pressure change
   177  1.0316e-02  1.5062e-03  3.1879e-03  5.7747e-03  2.8035e-03  1.2488e-03  0:00:19   23
 time step reduced in 34 cells due to excessive pressure change
   178  1.0424e-02  1.5274e-03  3.1723e-03  5.8691e-03  2.8069e-03  1.2495e-03  0:00:18   22
 time step reduced in 26 cells due to excessive pressure change
   179  1.0439e-02  1.5397e-03  3.1795e-03  5.9038e-03  2.8006e-03  1.2499e-03  0:00:17   21
 time step reduced in 21 cells due to excessive pressure change
   180  1.0229e-02  1.5178e-03  3.1263e-03  5.7762e-03  2.7924e-03  1.2497e-03  0:00:16   20
 time step reduced in 13 cells due to excessive pressure change
   181  1.0183e-02  1.5087e-03  3.1080e-03  5.7724e-03  2.7813e-03  1.2494e-03  0:00:16   19
 time step reduced in 8 cells due to excessive pressure change
   182  1.0175e-02  1.5115e-03  3.0806e-03  5.7893e-03  2.7753e-03  1.2491e-03  0:00:15   18
 time step reduced in 2 cells due to excessive pressure change

  iter  continuity  x-velocity  y-velocity      energy           k       omega     time/iter
   183  1.0210e-02  1.5199e-03  3.1062e-03  5.8415e-03  2.7701e-03  1.2482e-03  0:00:14   17
   184  9.9546e-03  1.4917e-03  3.0823e-03  5.6871e-03  2.7635e-03  1.2473e-03  0:00:13   16
   185  9.8074e-03  1.4678e-03  3.0512e-03  5.6093e-03  2.7573e-03  1.2461e-03  0:00:12   15
 time step reduced in 2 cells due to excessive pressure change
   186  9.7300e-03  1.4551e-03  3.0275e-03  5.5734e-03  2.7584e-03  1.2448e-03  0:00:11   14
   187  9.7746e-03  1.4600e-03  3.0420e-03  5.6259e-03  2.7516e-03  1.2424e-03  0:00:11   13
   188  9.6411e-03  1.4459e-03  3.0324e-03  5.5478e-03  2.7435e-03  1.2404e-03  0:00:10   12
   189  9.5029e-03  1.4219e-03  2.9784e-03  5.4633e-03  2.7372e-03  1.2376e-03  0:00:09   11
   190  9.5038e-03  1.4171e-03  2.9453e-03  5.4671e-03  2.7248e-03  1.2344e-03  0:00:08   10
   191  9.5304e-03  1.4151e-03  2.9585e-03  5.4893e-03  2.7157e-03  1.2309e-03  0:00:07    9
   192  9.4751e-03  1.4081e-03  2.9781e-03  5.4484e-03  2.7090e-03  1.2275e-03  0:00:07    8
 time step reduced in 11 cells due to excessive pressure change
   193  9.2552e-03  1.3696e-03  2.9340e-03  5.2880e-03  2.7036e-03  1.2237e-03  0:00:06    7
 time step reduced in 25 cells due to excessive pressure change

  iter  continuity  x-velocity  y-velocity      energy           k       omega     time/iter
   194  9.2538e-03  1.3601e-03  2.9275e-03  5.2739e-03  2.6957e-03  1.2192e-03  0:00:05    6
 time step reduced in 38 cells due to excessive pressure change
   195  9.3183e-03  1.3627e-03  2.9380e-03  5.3040e-03  2.6825e-03  1.2147e-03  0:00:04    5
 time step reduced in 54 cells due to excessive pressure change
   196  9.3709e-03  1.3692e-03  2.9852e-03  5.3209e-03  2.6714e-03  1.2098e-03  0:00:03    4
 time step reduced in 64 cells due to excessive pressure change
   197  9.2256e-03  1.3400e-03  2.9348e-03  5.1902e-03  2.6653e-03  1.2051e-03  0:00:02    3
 time step reduced in 75 cells due to excessive pressure change
   198  9.3638e-03  1.3490e-03  2.9419e-03  5.2596e-03  2.6593e-03  1.2004e-03  0:00:02    2
 time step reduced in 88 cells due to excessive pressure change
   199  9.5309e-03  1.3673e-03  2.9438e-03  5.3478e-03  2.6469e-03  1.1956e-03  0:00:01    1
 time step reduced in 94 cells due to excessive pressure change
   200  9.6265e-03  1.3805e-03  2.9948e-03  5.3845e-03  2.6343e-03  1.1910e-03  0:00:00    0
#t


> (ti-menu-load-string (format #f "/mesh/adapt/adapt-mesh"))
/mesh/adapt/adapt-mesh#t


> (ti-menu-load-string (format #f "/solve/iterate 50"))
/solve/iterate 50
  iter  continuity  x-velocity  y-velocity      energy           k       omega     time/iter
   200  9.6265e-03  1.3805e-03  2.9948e-03  5.3845e-03  2.6343e-03  1.1910e-03  0:00:41   50
 time step reduced in 102 cells due to excessive pressure change
   201  9.4734e-03  1.3492e-03  2.9540e-03  5.2372e-03  2.6194e-03  1.1873e-03  0:00:39   49
 time step reduced in 111 cells due to excessive pressure change
   202  9.5853e-03  1.3545e-03  2.9689e-03  5.2838e-03  2.6042e-03  1.1841e-03  0:00:39   48
 time step reduced in 117 cells due to excessive pressure change
   203  9.7550e-03  1.3743e-03  3.0000e-03  5.3738e-03  2.5914e-03  1.1812e-03  0:00:38   47
 time step reduced in 126 cells due to excessive pressure change
   204  9.8617e-03  1.3910e-03  3.0684e-03  5.4198e-03  2.5778e-03  1.1784e-03  0:00:37   46
 time step reduced in 128 cells due to excessive pressure change
   205  9.7437e-03  1.3640e-03  3.0364e-03  5.2965e-03  2.5661e-03  1.1756e-03  0:00:36   45

 time step reduced in 1 cells due to excessive temperature change
 time step reduced in 136 cells due to excessive pressure change
   206  9.9737e-03  1.3909e-03  3.0412e-03  5.4335e-03  2.5533e-03  1.1726e-03  0:00:36   44

 time step reduced in 1 cells due to excessive temperature change
 time step reduced in 136 cells due to excessive pressure change
   207  1.0252e-02  1.4282e-03  3.0823e-03  5.6106e-03  2.5367e-03  1.1687e-03  0:00:35   43
 time step reduced in 134 cells due to excessive pressure change
   208  1.0246e-02  1.4281e-03  3.1258e-03  5.5797e-03  2.5188e-03  1.1653e-03  0:00:34   42

 time step reduced in 3 cells due to excessive temperature change
 time step reduced in 139 cells due to excessive pressure change
   209  1.0203e-02  1.4136e-03  3.1099e-03  5.5252e-03  2.5019e-03  1.1613e-03  0:00:33   41

 time step reduced in 1 cells due to excessive temperature change
 time step reduced in 132 cells due to excessive pressure change
   210  1.0297e-02  1.4214e-03  3.1008e-03  5.5695e-03  2.4825e-03  1.1572e-03  0:00:33   40

 time step reduced in 4 cells due to excessive temperature change
 time step reduced in 132 cells due to excessive pressure change

  iter  continuity  x-velocity  y-velocity      energy           k       omega     time/iter
   211  1.0511e-02  1.4539e-03  3.1840e-03  5.7165e-03  2.4650e-03  1.1529e-03  0:00:32   39

 time step reduced in 1 cells due to excessive temperature change
 time step reduced in 132 cells due to excessive pressure change
   212  1.0333e-02  1.4247e-03  3.1934e-03  5.5597e-03  2.4430e-03  1.1480e-03  0:00:31   38

 time step reduced in 2 cells due to excessive temperature change
 time step reduced in 129 cells due to excessive pressure change
   213  1.0470e-02  1.4361e-03  3.2235e-03  5.6500e-03  2.4233e-03  1.1426e-03  0:00:30   37
 time step reduced in 124 cells due to excessive pressure change
   214  1.0726e-02  1.4748e-03  3.2192e-03  5.8262e-03  2.4043e-03  1.1374e-03  0:00:29   36
 time step reduced in 120 cells due to excessive pressure change
   215  1.0832e-02  1.4953e-03  3.2714e-03  5.8966e-03  2.3864e-03  1.1315e-03  0:00:29   35
 time step reduced in 116 cells due to excessive pressure change
   216  1.0653e-02  1.4607e-03  3.2622e-03  5.7485e-03  2.3677e-03  1.1248e-03  0:00:28   34
 time step reduced in 107 cells due to excessive pressure change
   217  1.0774e-02  1.4763e-03  3.2461e-03  5.8316e-03  2.3478e-03  1.1183e-03  0:00:27   33
 time step reduced in 109 cells due to excessive pressure change
   218  1.0894e-02  1.4942e-03  3.3272e-03  5.9243e-03  2.3294e-03  1.1113e-03  0:00:26   32
 time step reduced in 99 cells due to excessive pressure change
   219  1.0682e-02  1.4635e-03  3.3186e-03  5.7530e-03  2.3079e-03  1.1040e-03  0:00:25   31
 time step reduced in 95 cells due to excessive pressure change
   220  1.0829e-02  1.4798e-03  3.3517e-03  5.8648e-03  2.2918e-03  1.0967e-03  0:00:24   30
 time step reduced in 88 cells due to excessive pressure change
   221  1.1059e-02  1.5143e-03  3.3551e-03  6.0325e-03  2.2769e-03  1.0891e-03  0:00:24   29
 time step reduced in 82 cells due to excessive pressure change

  iter  continuity  x-velocity  y-velocity      energy           k       omega     time/iter
   222  1.1064e-02  1.5226e-03  3.3941e-03  6.0390e-03  2.2590e-03  1.0811e-03  0:00:23   28
 time step reduced in 74 cells due to excessive pressure change
   223  1.0965e-02  1.4994e-03  3.3938e-03  5.9649e-03  2.2423e-03  1.0725e-03  0:00:22   27
 time step reduced in 70 cells due to excessive pressure change
   224  1.1066e-02  1.5158e-03  3.3828e-03  6.0411e-03  2.2260e-03  1.0643e-03  0:00:21   26
 time step reduced in 65 cells due to excessive pressure change
   225  1.1038e-02  1.5157e-03  3.4460e-03  6.0321e-03  2.2116e-03  1.0558e-03  0:00:20   25
 time step reduced in 56 cells due to excessive pressure change
   226  1.0836e-02  1.4804e-03  3.4466e-03  5.8767e-03  2.1961e-03  1.0470e-03  0:00:20   24
 time step reduced in 52 cells due to excessive pressure change
   227  1.1067e-02  1.5169e-03  3.4316e-03  6.0522e-03  2.1825e-03  1.0385e-03  0:00:19   23
 time step reduced in 44 cells due to excessive pressure change
   228  1.1217e-02  1.5431e-03  3.4682e-03  6.1762e-03  2.1664e-03  1.0299e-03  0:00:18   22
 time step reduced in 40 cells due to excessive pressure change
   229  1.0998e-02  1.5102e-03  3.4458e-03  6.0073e-03  2.1523e-03  1.0212e-03  0:00:17   21
 time step reduced in 33 cells due to excessive pressure change
   230  1.1105e-02  1.5239e-03  3.4484e-03  6.0938e-03  2.1394e-03  1.0129e-03  0:00:16   20
 time step reduced in 31 cells due to excessive pressure change
   231  1.1093e-02  1.5217e-03  3.4894e-03  6.0984e-03  2.1269e-03  1.0044e-03  0:00:16   19
 time step reduced in 23 cells due to excessive pressure change
   232  1.0835e-02  1.4869e-03  3.4794e-03  5.9030e-03  2.1143e-03  9.9546e-04  0:00:15   18
 time step reduced in 22 cells due to excessive pressure change

  iter  continuity  x-velocity  y-velocity      energy           k       omega     time/iter
   233  1.0986e-02  1.5043e-03  3.4939e-03  6.0225e-03  2.1006e-03  9.8699e-04  0:00:14   17
 time step reduced in 16 cells due to excessive pressure change
   234  1.1130e-02  1.5262e-03  3.4966e-03  6.1326e-03  2.0880e-03  9.7831e-04  0:00:13   16
 time step reduced in 12 cells due to excessive pressure change
   235  1.1052e-02  1.5222e-03  3.4945e-03  6.0748e-03  2.0729e-03  9.6943e-04  0:00:12   15
 time step reduced in 8 cells due to excessive pressure change
   236  1.1069e-02  1.5157e-03  3.5017e-03  6.0915e-03  2.0596e-03  9.6123e-04  0:00:11   14
 time step reduced in 4 cells due to excessive pressure change
   237  1.1045e-02  1.5106e-03  3.5048e-03  6.0739e-03  2.0478e-03  9.5279e-04  0:00:11   13
 time step reduced in 1 cells due to excessive pressure change
   238  1.0916e-02  1.4987e-03  3.5398e-03  5.9832e-03  2.0342e-03  9.4411e-04  0:00:10   12
   239  1.0901e-02  1.4864e-03  3.5280e-03  5.9710e-03  2.0222e-03  9.3638e-04  0:00:09   11
   240  1.1027e-02  1.5059e-03  3.5100e-03  6.0571e-03  2.0111e-03  9.2858e-04  0:00:08   10
   241  1.1123e-02  1.5291e-03  3.5428e-03  6.1302e-03  1.9979e-03  9.2062e-04  0:00:07    9
   242  1.1050e-02  1.5087e-03  3.5296e-03  6.0683e-03  1.9863e-03  9.1313e-04  0:00:07    8
   243  1.1069e-02  1.5110e-03  3.5116e-03  6.0739e-03  1.9727e-03  9.0566e-04  0:00:06    7
 time step reduced in 2 cells due to excessive pressure change

  iter  continuity  x-velocity  y-velocity      energy           k       omega     time/iter
   244  1.1053e-02  1.5147e-03  3.5694e-03  6.0668e-03  1.9621e-03  8.9838e-04  0:00:05    6
   245  1.0900e-02  1.4831e-03  3.5519e-03  5.9395e-03  1.9525e-03  8.9124e-04  0:00:04    5
 time step reduced in 1 cells due to excessive pressure change
   246  1.1063e-02  1.5071e-03  3.5325e-03  6.0480e-03  1.9408e-03  8.8399e-04  0:00:03    4
   247  1.1256e-02  1.5429e-03  3.5624e-03  6.1929e-03  1.9297e-03  8.7664e-04  0:00:02    3
   248  1.1134e-02  1.5219e-03  3.5568e-03  6.0814e-03  1.9186e-03  8.6984e-04  0:00:02    2
   249  1.1243e-02  1.5344e-03  3.5423e-03  6.1530e-03  1.9087e-03  8.6312e-04  0:00:01    1

>> Dividing domain into 40 partitions using Metis.
   Time = 0.087431 seconds.
   Done.

>> 40 Stored Partitions:
   ----------------------------------------------------------------------
   Collective Partition Statistics:        Minimum   Maximum   Total     
   ----------------------------------------------------------------------
   Cell count                              36860     37440     1482975   
   Mean cell count deviation               -0.6%     1.0%      
   Partition boundary cell count           314       918       26044     
   Partition boundary cell count ratio     0.8%      2.5%      1.8%      

   Face count                              74206     76503     2980707   
   Mean face count deviation               -1.0%     2.1%      
   Partition boundary face count           394       1172      16718     
   Partition boundary face count ratio     0.5%      1.6%      0.6%      

   Cell weights                            3e+05     4e+05     1e+07     
   Mean cell weight deviation              -11.7%    3.6%      

   Partition neighbor count                1         7         
   ----------------------------------------------------------------------
   Partition Method                        Metis                                
   Stored Partition Count                  40                                   
Done.

Adapting mesh...
done.
 time step reduced in 68 cells due to excessive pressure change
   250  3.6474e-01  2.9730e-01  5.8761e-01  2.3320e-01  1.9017e-03  1.5527e-01  0:00:00    0
#t


> (ti-menu-load-string (format #f "/mesh/adapt/adapt-mesh"))
/mesh/adapt/adapt-mesh#t


> 
adjoint/                mesh/                   report/
define/                 parallel/               server/
display/                plot/                   solve/
exit                    preferences/            surface/
file/                   print-license-usage     views/

> (ti-menu-load-string (format #f "/solve/iterate 29750"))
/solve/iterate 29750
  iter  continuity  x-velocity  y-velocity      energy           k       omega     time/iter
   250  3.6474e-01  2.9730e-01  5.8761e-01  2.3320e-01  1.9017e-03  1.5527e-01  9:52:31 29750
 time step reduced in 88 cells due to excessive pressure change
   251  1.1261e-01  8.2187e-02  1.7348e-01  6.7065e-02  1.8919e-03  6.2813e-02  9:06:19 29749
 time step reduced in 103 cells due to excessive pressure change
   252  5.6455e-02  2.4111e-02  7.3276e-02  3.4604e-02  1.8810e-03  2.2034e-02  8:40:04 29748
 time step reduced in 112 cells due to excessive pressure change
   253  5.4214e-02  8.0434e-03  4.6447e-02  3.3894e-02  1.8718e-03  6.5815e-03  8:21:26 29747
 time step reduced in 115 cells due to excessive pressure change
   254  4.8543e-02  3.9520e-03  3.4142e-02  2.9501e-02  1.8626e-03  1.7610e-03  8:06:23 29746
 time step reduced in 117 cells due to excessive pressure change
   255  4.2809e-02  3.0535e-03  2.6503e-02  2.5274e-02  1.8550e-03  5.0278e-04  7:52:04 29745
 time step reduced in 119 cells due to excessive pressure change
   256  3.7176e-02  2.7911e-03  2.0929e-02  2.1406e-02  1.8462e-03  3.9170e-04  7:39:59 29744
 time step reduced in 117 cells due to excessive pressure change
   257  3.1912e-02  2.5996e-03  1.6767e-02  1.7991e-02  1.8385e-03  4.0442e-04  7:30:28 29743
 time step reduced in 114 cells due to excessive pressure change
   258  2.7336e-02  2.4249e-03  1.3645e-02  1.5162e-02  1.8308e-03  4.1024e-04  7:35:44 29742
 time step reduced in 110 cells due to excessive pressure change
   259  2.3549e-02  2.2562e-03  1.1305e-02  1.2914e-02  1.8248e-03  4.1184e-04  7:26:58 29741
 time step reduced in 102 cells due to excessive pressure change
   260  2.0603e-02  2.1178e-03  9.5628e-03  1.1244e-02  1.8180e-03  4.1322e-04  7:20:04 29740
 time step reduced in 92 cells due to excessive pressure change

  iter  continuity  x-velocity  y-velocity      energy           k       omega     time/iter
   261  1.8223e-02  1.9696e-03  8.2304e-03  9.9010e-03  1.8115e-03  4.1512e-04  7:14:38 29739
 time step reduced in 88 cells due to excessive pressure change
   262  1.6540e-02  1.8618e-03  7.2248e-03  8.9891e-03  1.8048e-03  4.1746e-04  7:44:28 29738
 time step reduced in 80 cells due to excessive pressure change
   263  1.5217e-02  1.7684e-03  6.4708e-03  8.2730e-03  1.7992e-03  4.2000e-04  7:34:17 29737
 time step reduced in 75 cells due to excessive pressure change
   264  1.4189e-02  1.6988e-03  5.8930e-03  7.7150e-03  1.7937e-03  4.2198e-04  7:26:01 29736
 time step reduced in 67 cells due to excessive pressure change
   265  1.3374e-02  1.6307e-03  5.4205e-03  7.2680e-03  1.7876e-03  4.2382e-04  7:19:19 29735
 time step reduced in 59 cells due to excessive pressure change
   266  1.2833e-02  1.5936e-03  5.0376e-03  6.9885e-03  1.7813e-03  4.2550e-04  7:14:29 29734
 time step reduced in 55 cells due to excessive pressure change
   267  1.2494e-02  1.5830e-03  4.7604e-03  6.8374e-03  1.7758e-03  4.2764e-04  7:10:32 29733
 time step reduced in 50 cells due to excessive pressure change
   268  1.2085e-02  1.5514e-03  4.5099e-03  6.6061e-03  1.7693e-03  4.2941e-04  7:07:02 29732
 time step reduced in 43 cells due to excessive pressure change
   269  1.1853e-02  1.5334e-03  4.3099e-03  6.4977e-03  1.7624e-03  4.3116e-04  7:05:31 29731
 time step reduced in 37 cells due to excessive pressure change
   270  1.1627e-02  1.5136e-03  4.1270e-03  6.3768e-03  1.7555e-03  4.3273e-04  7:03:08 29730
 time step reduced in 32 cells due to excessive pressure change
   271  1.1463e-02  1.5057e-03  4.0148e-03  6.3020e-03  1.7489e-03  4.3441e-04  7:00:44 29729
 time step reduced in 25 cells due to excessive pressure change

  iter  continuity  x-velocity  y-velocity      energy           k       omega     time/iter
   272  1.1139e-02  1.4658e-03  3.8900e-03  6.0939e-03  1.7415e-03  4.3587e-04  6:59:31 29728
 time step reduced in 21 cells due to excessive pressure change
   273  1.0964e-02  1.4425e-03  3.7877e-03  6.0005e-03  1.7335e-03  4.3766e-04  6:58:28 29727
 time step reduced in 16 cells due to excessive pressure change
   274  1.0815e-02  1.4250e-03  3.6851e-03  5.9154e-03  1.7250e-03  4.3943e-04  6:57:29 29726
 time step reduced in 11 cells due to excessive pressure change
   275  1.0742e-02  1.4221e-03  3.6227e-03  5.8935e-03  1.7153e-03  4.4147e-04  6:56:58 29725
 time step reduced in 9 cells due to excessive pressure change
   276  1.0526e-02  1.3964e-03  3.5331e-03  5.7540e-03  1.7069e-03  4.4325e-04  6:56:35 29724
 time step reduced in 4 cells due to excessive pressure change
   277  1.0396e-02  1.3732e-03  3.4552e-03  5.6861e-03  1.6970e-03  4.4504e-04  6:55:57 29723
   278  1.0254e-02  1.3559e-03  3.3541e-03  5.6021e-03  1.6869e-03  4.4686e-04  6:55:45 29722
   279  1.0150e-02  1.3410e-03  3.3315e-03  5.5519e-03  1.6772e-03  4.4872e-04  6:55:19 29721
   280  9.9368e-03  1.3155e-03  3.2774e-03  5.4210e-03  1.6667e-03  4.5038e-04  6:55:31 29720
   281  9.6808e-03  1.2720e-03  3.1981e-03  5.2547e-03  1.6559e-03  4.5203e-04  6:56:43 29719
   282  9.5084e-03  1.2454e-03  3.1372e-03  5.1507e-03  1.6448e-03  4.5351e-04  6:56:48 29718

  iter  continuity  x-velocity  y-velocity      energy           k       omega     time/iter
   283  9.3807e-03  1.2280e-03  3.0858e-03  5.0806e-03  1.6336e-03  4.5505e-04  6:56:08 29717
   284  9.3300e-03  1.2271e-03  3.0690e-03  5.0684e-03  1.6228e-03  4.5639e-04  6:56:18 29716
   285  9.0983e-03  1.1920e-03  2.9748e-03  4.9186e-03  1.6123e-03  4.5770e-04  6:56:15 29715
   286  8.9417e-03  1.1651e-03  2.9044e-03  4.8239e-03  1.6016e-03  4.5880e-04  6:55:54 29714
   287  8.8386e-03  1.1521e-03  2.8464e-03  4.7667e-03  1.5901e-03  4.5980e-04  6:55:36 29713
   288  8.7419e-03  1.1378e-03  2.7979e-03  4.7168e-03  1.5785e-03  4.6060e-04  6:55:35 29712
   289  8.6617e-03  1.1304e-03  2.7649e-03  4.6742e-03  1.5672e-03  4.6132e-04  6:54:57 29711
   290  8.4635e-03  1.1017e-03  2.7110e-03  4.5457e-03  1.5557e-03  4.6188e-04  6:54:51 29710
   291  8.2971e-03  1.0712e-03  2.6471e-03  4.4383e-03  1.5443e-03  4.6239e-04  6:54:42 29709
 time step reduced in 1 cells due to excessive pressure change
   292  8.2212e-03  1.0628e-03  2.6230e-03  4.3961e-03  1.5334e-03  4.6272e-04  6:55:02 29708
   293  8.1229e-03  1.0484e-03  2.5600e-03  4.3330e-03  1.5222e-03  4.6284e-04  6:55:52 29707

  iter  continuity  x-velocity  y-velocity      energy           k       omega     time/iter
   294  8.0649e-03  1.0407e-03  2.5535e-03  4.3000e-03  1.5104e-03  4.6280e-04  6:55:42 29706
   295  8.0286e-03  1.0401e-03  2.5014e-03  4.2807e-03  1.4984e-03  4.6252e-04  6:55:11 29705
   296  7.9005e-03  1.0197e-03  2.4554e-03  4.1923e-03  1.4861e-03  4.6212e-04  6:54:58 29704
   297  7.8210e-03  1.0047e-03  2.3989e-03  4.1401e-03  1.4739e-03  4.6173e-04  6:54:45 29703
   298  7.7915e-03  1.0019e-03  2.3743e-03  4.1267e-03  1.4619e-03  4.6122e-04  6:54:53 29702
   299  7.7448e-03  9.9701e-04  2.3289e-03  4.0982e-03  1.4498e-03  4.6059e-04  6:54:44 29701
   300  7.6941e-03  9.9078e-04  2.3184e-03  4.0683e-03  1.4379e-03  4.5989e-04  6:54:55 29700
   301  7.6395e-03  9.8413e-04  2.2948e-03  4.0383e-03  1.4262e-03  4.5907e-04  6:54:45 29699
   302  7.5752e-03  9.7827e-04  2.2582e-03  4.0021e-03  1.4136e-03  4.5808e-04  6:54:38 29698
   303  7.4529e-03  9.5857e-04  2.2276e-03  3.9210e-03  1.4016e-03  4.5700e-04  6:54:27 29697
   304  7.4167e-03  9.5377e-04  2.2106e-03  3.9072e-03  1.3898e-03  4.5583e-04  6:54:40 29696

  iter  continuity  x-velocity  y-velocity      energy           k       omega     time/iter
   305  7.3910e-03  9.5391e-04  2.2088e-03  3.8992e-03  1.3778e-03  4.5454e-04  6:55:53 29695
   306  7.3617e-03  9.5307e-04  2.1814e-03  3.8844e-03  1.3653e-03  4.5305e-04  6:55:56 29694
   307  7.3562e-03  9.5529e-04  2.1732e-03  3.8875e-03  1.3527e-03  4.5138e-04  6:55:24 29693
   308  7.3220e-03  9.5223e-04  2.1749e-03  3.8690e-03  1.3408e-03  4.4976e-04  6:55:24 29692
   309  7.3232e-03  9.5570e-04  2.1484e-03  3.8780e-03  1.3291e-03  4.4796e-04  6:55:10 29691
   310  7.2800e-03  9.5242e-04  2.1241e-03  3.8542e-03  1.3172e-03  4.4602e-04  6:55:13 29690
   311  7.2417e-03  9.4700e-04  2.0989e-03  3.8347e-03  1.3055e-03  4.4392e-04  6:54:59 29689
   312  7.2390e-03  9.4808e-04  2.0812e-03  3.8417e-03  1.2941e-03  4.4180e-04  6:54:24 29688
   313  7.2140e-03  9.4601e-04  2.0619e-03  3.8326e-03  1.2825e-03  4.3958e-04  6:54:36 29687
   314  7.1979e-03  9.4509e-04  2.0495e-03  3.8297e-03  1.2716e-03  4.3739e-04  6:54:38 29686
   315  7.1638e-03  9.4182e-04  2.0342e-03  3.8149e-03  1.2606e-03  4.3490e-04  6:54:27 29685

  iter  continuity  x-velocity  y-velocity      energy           k       omega     time/iter
   316  7.1002e-03  9.3195e-04  2.0374e-03  3.7798e-03  1.2493e-03  4.3245e-04  6:54:30 29684
   317  7.0328e-03  9.2196e-04  2.0233e-03  3.7438e-03  1.2378e-03  4.2972e-04  6:54:54 29683
   318  6.9849e-03  9.1558e-04  2.0032e-03  3.7227e-03  1.2262e-03  4.2702e-04  6:54:22 29682
   319  6.8679e-03  8.9605e-04  1.9840e-03  3.6507e-03  1.2149e-03  4.2439e-04  6:54:37 29681
   320  6.7996e-03  8.8426e-04  1.9714e-03  3.6149e-03  1.2039e-03  4.2191e-04  6:54:36 29680
   321  6.7303e-03  8.7302e-04  1.9610e-03  3.5771e-03  1.1928e-03  4.1939e-04  6:54:33 29679
   322  6.6577e-03  8.6042e-04  1.9626e-03  3.5368e-03  1.1819e-03  4.1689e-04  6:54:47 29678
   323  6.5925e-03  8.5064e-04  1.9476e-03  3.5025e-03  1.1713e-03  4.1440e-04  6:54:45 29677
   324  6.5247e-03  8.4058e-04  1.9389e-03  3.4677e-03  1.1609e-03  4.1185e-04  6:56:58 29676
   325  6.4370e-03  8.2693e-04  1.9300e-03  3.4183e-03  1.1504e-03  4.0914e-04  7:01:17 29675
   326  6.3853e-03  8.1976e-04  1.9239e-03  3.3964e-03  1.1406e-03  4.0656e-04  7:00:39 29674

  iter  continuity  x-velocity  y-velocity      energy           k       omega     time/iter
   327  6.2541e-03  7.9787e-04  1.8963e-03  3.3137e-03  1.1309e-03  4.0380e-04  6:59:38 29673
   328  6.1575e-03  7.8147e-04  1.8781e-03  3.2592e-03  1.1210e-03  4.0119e-04  6:58:17 29672
   329  6.0950e-03  7.7179e-04  1.8560e-03  3.2285e-03  1.1116e-03  3.9832e-04  7:09:24 29671
   330  6.0326e-03  7.6254e-04  1.8439e-03  3.1957e-03  1.1021e-03  3.9553e-04  7:06:22 29670
   331  5.9745e-03  7.5357e-04  1.8206e-03  3.1664e-03  1.0927e-03  3.9253e-04  7:04:01 29669
   332  5.9226e-03  7.4717e-04  1.8045e-03  3.1415e-03  1.0835e-03  3.8960e-04  7:01:32 29668
   333  5.8612e-03  7.3837e-04  1.7888e-03  3.1102e-03  1.0748e-03  3.8664e-04  6:59:51 29667
   334  5.8083e-03  7.3314e-04  1.7844e-03  3.0844e-03  1.0663e-03  3.8372e-04  6:58:24 29666
   335  5.8055e-03  7.3732e-04  1.7655e-03  3.0953e-03  1.0579e-03  3.8074e-04  6:57:44 29665
   336  5.6511e-03  7.1152e-04  1.7478e-03  2.9910e-03  1.0496e-03  3.7782e-04  6:56:54 29664
   337  5.5845e-03  7.0188e-04  1.7219e-03  2.9528e-03  1.0419e-03  3.7495e-04  6:55:45 29663

  iter  continuity  x-velocity  y-velocity      energy           k       omega     time/iter
   338  5.5420e-03  6.9731e-04  1.7004e-03  2.9305e-03  1.0338e-03  3.7206e-04  6:54:53 29662
   339  5.4923e-03  6.9077e-04  1.6798e-03  2.9011e-03  1.0259e-03  3.6924e-04  6:54:16 29661
   340  5.4643e-03  6.8849e-04  1.6663e-03  2.8866e-03  1.0183e-03  3.6675e-04  6:53:57 29660
   341  5.4341e-03  6.8674e-04  1.6467e-03  2.8704e-03  1.0106e-03  3.6459e-04  6:55:05 29659
   342  5.4025e-03  6.8429e-04  1.6353e-03  2.8537e-03  1.0028e-03  3.6302e-04  6:55:06 29658
   343  5.3871e-03  6.8637e-04  1.6284e-03  2.8484e-03  9.9541e-04  3.6168e-04  6:54:25 29657
   344  5.4243e-03  6.9818e-04  1.6172e-03  2.8814e-03  9.8809e-04  3.6063e-04  6:53:49 29656
   345  5.3269e-03  6.8540e-04  1.6015e-03  2.8118e-03  9.8106e-04  3.5988e-04  6:53:19 29655
   346  5.2904e-03  6.8198e-04  1.5758e-03  2.7885e-03  9.7389e-04  3.5934e-04  6:53:23 29654
   347  5.2896e-03  6.8444e-04  1.5584e-03  2.7896e-03  9.6659e-04  3.5889e-04  6:53:19 29653
 time step reduced in 1 cells due to excessive pressure change
   348  5.2954e-03  6.8858e-04  1.5530e-03  2.7942e-03  9.5988e-04  3.5874e-04  6:53:37 29652

  iter  continuity  x-velocity  y-velocity      energy           k       omega     time/iter
   349  5.3075e-03  6.9306e-04  1.5329e-03  2.8035e-03  9.5316e-04  3.5852e-04  6:53:18 29651
   350  5.3246e-03  6.9873e-04  1.5278e-03  2.8165e-03  9.4634e-04  3.5861e-04  6:53:49 29650
   351  5.3568e-03  7.0705e-04  1.5139e-03  2.8404e-03  9.3981e-04  3.5853e-04  6:53:38 29649
   352  5.3927e-03  7.1671e-04  1.5214e-03  2.8660e-03  9.3316e-04  3.5867e-04  6:53:35 29648
   353  5.4587e-03  7.3110e-04  1.5183e-03  2.9137e-03  9.2653e-04  3.5870e-04  6:54:44 29647
   354  5.4566e-03  7.3300e-04  1.5203e-03  2.9087e-03  9.1991e-04  3.5883e-04  6:54:38 29646
   355  5.4587e-03  7.3421e-04  1.5133e-03  2.9085e-03  9.1360e-04  3.5910e-04  6:54:06 29645
   356  5.4952e-03  7.4180e-04  1.5135e-03  2.9327e-03  9.0747e-04  3.5944e-04  6:54:06 29644
   357  5.5288e-03  7.4831e-04  1.5132e-03  2.9532e-03  9.0133e-04  3.5982e-04  6:54:09 29643
   358  5.5744e-03  7.5550e-04  1.5181e-03  2.9822e-03  8.9541e-04  3.6029e-04  6:54:01 29642
   359  5.6333e-03  7.6601e-04  1.5224e-03  3.0219e-03  8.8990e-04  3.6090e-04  6:53:47 29641

  iter  continuity  x-velocity  y-velocity      energy           k       omega     time/iter
   360  5.6575e-03  7.6969e-04  1.5320e-03  3.0356e-03  8.8412e-04  3.6142e-04  6:53:38 29640
   361  5.7005e-03  7.7726e-04  1.5484e-03  3.0650e-03  8.7851e-04  3.6199e-04  6:53:12 29639
   362  5.7635e-03  7.8814e-04  1.5698e-03  3.1095e-03  8.7325e-04  3.6268e-04  6:53:28 29638
   363  5.8639e-03  8.0510e-04  1.5873e-03  3.1811e-03  8.6775e-04  3.6336e-04  6:53:05 29637
   364  5.8125e-03  7.9630e-04  1.5999e-03  3.1413e-03  8.6234e-04  3.6411e-04  6:53:59 29636
   365  5.8136e-03  7.9480e-04  1.6020e-03  3.1413e-03  8.5701e-04  3.6477e-04  6:53:42 29635
   366  5.8525e-03  8.0009e-04  1.6224e-03  3.1701e-03  8.5183e-04  3.6555e-04  6:53:37 29634
   367  5.9074e-03  8.0878e-04  1.6294e-03  3.2116e-03  8.4687e-04  3.6644e-04  6:53:11 29633
   368  5.8945e-03  8.0673e-04  1.6407e-03  3.2021e-03  8.4171e-04  3.6725e-04  6:53:30 29632
   369  5.8940e-03  8.0532e-04  1.6517e-03  3.2050e-03  8.3678e-04  3.6813e-04  6:53:03 29631
   370  5.9043e-03  8.0531e-04  1.6605e-03  3.2154e-03  8.3193e-04  3.6910e-04  6:52:58 29630

  iter  continuity  x-velocity  y-velocity      energy           k       omega     time/iter
   371  5.8949e-03  8.0468e-04  1.6618e-03  3.2125e-03  8.2709e-04  3.7013e-04  6:53:00 29629
   372  5.9109e-03  8.0638e-04  1.6792e-03  3.2302e-03  8.2261e-04  3.7125e-04  6:53:06 29628
   373  5.8527e-03  7.9598e-04  1.6745e-03  3.1928e-03  8.1822e-04  3.7215e-04  6:52:20 29627
   374  5.8194e-03  7.9071e-04  1.6710e-03  3.1749e-03  8.1345e-04  3.7324e-04  6:52:52 29626
   375  5.7647e-03  7.7993e-04  1.6628e-03  3.1414e-03  8.0885e-04  3.7409e-04  6:53:13 29625
   376  5.7325e-03  7.7270e-04  1.6582e-03  3.1234e-03  8.0417e-04  3.7509e-04  6:54:12 29624
   377  5.7099e-03  7.6953e-04  1.6468e-03  3.1143e-03  7.9975e-04  3.7608e-04  6:54:11 29623
   378  5.6594e-03  7.6077e-04  1.6488e-03  3.0855e-03  7.9533e-04  3.7711e-04  6:54:04 29622
   379  5.6227e-03  7.5324e-04  1.6262e-03  3.0651e-03  7.9092e-04  3.7801e-04  6:53:33 29621
   380  5.5807e-03  7.4773e-04  1.6259e-03  3.0420e-03  7.8643e-04  3.7906e-04  6:53:46 29620
   381  5.5256e-03  7.3890e-04  1.6166e-03  3.0101e-03  7.8220e-04  3.7994e-04  6:54:06 29619

  iter  continuity  x-velocity  y-velocity      energy           k       omega     time/iter
   382  5.5209e-03  7.3755e-04  1.6123e-03  3.0140e-03  7.7777e-04  3.8090e-04  6:53:42 29618
   383  5.4237e-03  7.2311e-04  1.5987e-03  2.9502e-03  7.7339e-04  3.8161e-04  6:53:44 29617
   384  5.3435e-03  7.0844e-04  1.5836e-03  2.9006e-03  7.6887e-04  3.8237e-04  6:53:38 29616
   385  5.3056e-03  7.0101e-04  1.5601e-03  2.8806e-03  7.6456e-04  3.8322e-04  6:53:03 29615
   386  5.2504e-03  6.9350e-04  1.5429e-03  2.8478e-03  7.6039e-04  3.8398e-04  6:53:07 29614
   387  5.1942e-03  6.8391e-04  1.5304e-03  2.8148e-03  7.5607e-04  3.8479e-04  6:53:05 29613
   388  5.1633e-03  6.7817e-04  1.5083e-03  2.7991e-03  7.5178e-04  3.8543e-04  6:53:56 29612
   389  5.1154e-03  6.7210e-04  1.4921e-03  2.7715e-03  7.4742e-04  3.8595e-04  6:53:24 29611
   390  5.0452e-03  6.6019e-04  1.4850e-03  2.7279e-03  7.4325e-04  3.8669e-04  6:52:56 29610
   391  5.0175e-03  6.5639e-04  1.4592e-03  2.7158e-03  7.3925e-04  3.8708e-04  6:52:29 29609
   392  4.9875e-03  6.5462e-04  1.4518e-03  2.7017e-03  7.3487e-04  3.8755e-04  6:52:23 29608

  iter  continuity  x-velocity  y-velocity      energy           k       omega     time/iter
   393  4.9318e-03  6.4547e-04  1.4287e-03  2.6679e-03  7.3063e-04  3.8780e-04  6:52:36 29607
   394  4.8920e-03  6.4021e-04  1.4253e-03  2.6468e-03  7.2627e-04  3.8821e-04  6:52:33 29606
   395  4.8476e-03  6.3486e-04  1.3984e-03  2.6232e-03  7.2214e-04  3.8845e-04  6:52:35 29605
   396  4.7555e-03  6.2056e-04  1.3856e-03  2.5635e-03  7.1776e-04  3.8862e-04  6:54:15 29604
   397  4.7049e-03  6.1302e-04  1.3581e-03  2.5348e-03  7.1344e-04  3.8853e-04  6:57:54 29603
   398  4.6823e-03  6.1054e-04  1.3430e-03  2.5257e-03  7.0900e-04  3.8854e-04  6:58:38 29602
   399  4.6586e-03  6.0973e-04  1.3185e-03  2.5155e-03  7.0474e-04  3.8846e-04  6:57:04 29601
   400  4.5773e-03  5.9686e-04  1.3068e-03  2.4631e-03  7.0044e-04  3.8837e-04  7:09:29 29600
   401  4.5328e-03  5.9090e-04  1.2816e-03  2.4387e-03  6.9613e-04  3.8803e-04  7:06:02 29599
   402  4.5080e-03  5.8862e-04  1.2700e-03  2.4283e-03  6.9175e-04  3.8782e-04  7:07:01 29598
   403  4.4855e-03  5.8777e-04  1.2444e-03  2.4192e-03  6.8758e-04  3.8731e-04  7:04:23 29597

  iter  continuity  x-velocity  y-velocity      energy           k       omega     time/iter
   404  4.4427e-03  5.8329e-04  1.2381e-03  2.3956e-03  6.8323e-04  3.8682e-04  7:02:11 29596
   405  4.3780e-03  5.7380e-04  1.2154e-03  2.3559e-03  6.7896e-04  3.8612e-04  7:00:55 29595
   406  4.3725e-03  5.7506e-04  1.2047e-03  2.3598e-03  6.7465e-04  3.8553e-04  7:00:54 29594
   407  4.3624e-03  5.7672e-04  1.1850e-03  2.3598e-03  6.7054e-04  3.8479e-04  6:59:35 29593
   408  4.3043e-03  5.6805e-04  1.1792e-03  2.3253e-03  6.6645e-04  3.8399e-04  6:58:11 29592
   409  4.2577e-03  5.6253e-04  1.1508e-03  2.2985e-03  6.6234e-04  3.8286e-04  6:57:02 29591
   410  4.2252e-03  5.5911e-04  1.1423e-03  2.2821e-03  6.5823e-04  3.8189e-04  6:56:14 29590
   411  4.1810e-03  5.5289e-04  1.1196e-03  2.2568e-03  6.5431e-04  3.8070e-04  6:55:19 29589
   412  4.1545e-03  5.5002e-04  1.1106e-03  2.2442e-03  6.5027e-04  3.7955e-04  6:55:20 29588
   413  4.1283e-03  5.4739e-04  1.0876e-03  2.2316e-03  6.4629e-04  3.7824e-04  6:54:46 29587
   414  4.1040e-03  5.4480e-04  1.0824e-03  2.2199e-03  6.4235e-04  3.7713e-04  6:53:53 29586

  iter  continuity  x-velocity  y-velocity      energy           k       omega     time/iter
   415  4.0802e-03  5.4229e-04  1.0636e-03  2.2084e-03  6.3855e-04  3.7578e-04  6:53:17 29585
   416  4.0574e-03  5.3958e-04  1.0615e-03  2.1970e-03  6.3467e-04  3.7450e-04  6:53:00 29584
   417  4.0356e-03  5.3692e-04  1.0420e-03  2.1862e-03  6.3065e-04  3.7306e-04  6:53:23 29583
   418  4.0113e-03  5.3371e-04  1.0366e-03  2.1732e-03  6.2664e-04  3.7180e-04  6:53:16 29582
   419  3.9884e-03  5.3069e-04  1.0201e-03  2.1613e-03  6.2274e-04  3.7041e-04  6:53:07 29581
   420  3.9691e-03  5.2816e-04  1.0200e-03  2.1514e-03  6.1891e-04  3.6904e-04  6:52:52 29580
   421  3.9503e-03  5.2542e-04  1.0005e-03  2.1415e-03  6.1503e-04  3.6735e-04  6:53:13 29579
   422  3.9338e-03  5.2255e-04  1.0016e-03  2.1326e-03  6.1119e-04  3.6588e-04  6:52:50 29578
   423  3.9507e-03  5.2613e-04  9.8718e-04  2.1476e-03  6.0746e-04  3.6423e-04  6:52:51 29577
   424  3.9505e-03  5.2656e-04  9.9000e-04  2.1495e-03  6.0369e-04  3.6265e-04  6:54:22 29576
   425  3.9032e-03  5.1786e-04  9.7502e-04  2.1174e-03  5.9992e-04  3.6084e-04  6:53:52 29575

  iter  continuity  x-velocity  y-velocity      energy           k       omega     time/iter
   426  3.8793e-03  5.1331e-04  9.7437e-04  2.1016e-03  5.9621e-04  3.5920e-04  6:53:31 29574
   427  3.8616e-03  5.0980e-04  9.6088e-04  2.0900e-03  5.9258e-04  3.5727e-04  6:53:37 29573
   428  3.8475e-03  5.0672e-04  9.6492e-04  2.0805e-03  5.8894e-04  3.5541e-04  6:53:18 29572
   429  3.8350e-03  5.0407e-04  9.5064e-04  2.0720e-03  5.8528e-04  3.5335e-04  6:52:56 29571
   430  3.8252e-03  5.0182e-04  9.5324e-04  2.0651e-03  5.8168e-04  3.5145e-04  6:53:20 29570
   431  3.8152e-03  4.9943e-04  9.4435e-04  2.0577e-03  5.7814e-04  3.4942e-04  6:53:16 29569
   432  3.8080e-03  4.9742e-04  9.5160e-04  2.0520e-03  5.7470e-04  3.4739e-04  6:53:28 29568
[...]
 29834  3.4607e-05  1.2480e-05  5.1600e-06  2.5356e-05  1.4901e-06  1.4415e-06  0:02:05  166
 29835  3.4605e-05  1.2479e-05  5.1595e-06  2.5354e-05  1.4899e-06  1.4415e-06  0:02:05  165
 29836  3.4603e-05  1.2478e-05  5.1590e-06  2.5351e-05  1.4897e-06  1.4416e-06  0:02:04  164
 29837  3.4601e-05  1.2477e-05  5.1585e-06  2.5349e-05  1.4895e-06  1.4417e-06  0:02:03  163
 29838  3.4598e-05  1.2476e-05  5.1580e-06  2.5347e-05  1.4893e-06  1.4417e-06  0:02:07  162
 29839  3.4596e-05  1.2475e-05  5.1575e-06  2.5345e-05  1.4891e-06  1.4418e-06  0:02:05  161

  iter  continuity  x-velocity  y-velocity      energy           k       omega     time/iter
 29840  3.4594e-05  1.2474e-05  5.1571e-06  2.5343e-05  1.4890e-06  1.4418e-06  0:02:04  160
 29841  3.4592e-05  1.2473e-05  5.1566e-06  2.5340e-05  1.4888e-06  1.4419e-06  0:02:02  159
 29842  3.4589e-05  1.2472e-05  5.1561e-06  2.5338e-05  1.4886e-06  1.4419e-06  0:02:01  158
 29843  3.4587e-05  1.2471e-05  5.1556e-06  2.5336e-05  1.4884e-06  1.4420e-06  0:02:00  157
 29844  3.4585e-05  1.2470e-05  5.1551e-06  2.5334e-05  1.4882e-06  1.4421e-06  0:01:59  156
 29845  3.4583e-05  1.2469e-05  5.1546e-06  2.5332e-05  1.4880e-06  1.4421e-06  0:01:58  155
 29846  3.4580e-05  1.2469e-05  5.1542e-06  2.5329e-05  1.4879e-06  1.4422e-06  0:01:57  154
 29847  3.4578e-05  1.2468e-05  5.1537e-06  2.5327e-05  1.4877e-06  1.4422e-06  0:01:56  153
 29848  3.4576e-05  1.2467e-05  5.1532e-06  2.5325e-05  1.4875e-06  1.4423e-06  0:01:55  152
 29849  3.4574e-05  1.2466e-05  5.1527e-06  2.5323e-05  1.4873e-06  1.4423e-06  0:01:54  151
 29850  3.4572e-05  1.2465e-05  5.1522e-06  2.5320e-05  1.4871e-06  1.4424e-06  0:01:54  150

  iter  continuity  x-velocity  y-velocity      energy           k       omega     time/iter
 29851  3.4569e-05  1.2464e-05  5.1517e-06  2.5318e-05  1.4870e-06  1.4425e-06  0:01:53  149
 29852  3.4567e-05  1.2463e-05  5.1512e-06  2.5316e-05  1.4868e-06  1.4425e-06  0:01:52  148
 29853  3.4565e-05  1.2462e-05  5.1508e-06  2.5314e-05  1.4866e-06  1.4426e-06  0:01:51  147
 29854  3.4563e-05  1.2461e-05  5.1503e-06  2.5312e-05  1.4864e-06  1.4426e-06  0:01:50  146
 29855  3.4560e-05  1.2460e-05  5.1498e-06  2.5309e-05  1.4862e-06  1.4427e-06  0:01:50  145
 29856  3.4558e-05  1.2459e-05  5.1493e-06  2.5307e-05  1.4860e-06  1.4428e-06  0:01:49  144
 29857  3.4556e-05  1.2458e-05  5.1488e-06  2.5305e-05  1.4859e-06  1.4428e-06  0:01:48  143
 29858  3.4554e-05  1.2457e-05  5.1484e-06  2.5303e-05  1.4857e-06  1.4429e-06  0:01:47  142
 29859  3.4551e-05  1.2456e-05  5.1479e-06  2.5301e-05  1.4855e-06  1.4429e-06  0:01:46  141
 29860  3.4549e-05  1.2455e-05  5.1474e-06  2.5298e-05  1.4853e-06  1.4430e-06  0:01:46  140
 29861  3.4547e-05  1.2454e-05  5.1469e-06  2.5296e-05  1.4851e-06  1.4430e-06  0:01:45  139

  iter  continuity  x-velocity  y-velocity      energy           k       omega     time/iter
 29862  3.4545e-05  1.2453e-05  5.1464e-06  2.5294e-05  1.4849e-06  1.4431e-06  0:01:44  138
 29863  3.4542e-05  1.2452e-05  5.1460e-06  2.5292e-05  1.4848e-06  1.4432e-06  0:01:43  137
 29864  3.4540e-05  1.2451e-05  5.1455e-06  2.5289e-05  1.4846e-06  1.4432e-06  0:01:43  136
 29865  3.4538e-05  1.2450e-05  5.1450e-06  2.5287e-05  1.4844e-06  1.4433e-06  0:01:42  135
 29866  3.4536e-05  1.2449e-05  5.1445e-06  2.5285e-05  1.4842e-06  1.4433e-06  0:01:41  134
 29867  3.4534e-05  1.2448e-05  5.1440e-06  2.5283e-05  1.4840e-06  1.4434e-06  0:01:41  133
 29868  3.4531e-05  1.2447e-05  5.1436e-06  2.5281e-05  1.4839e-06  1.4434e-06  0:01:40  132
 29869  3.4529e-05  1.2446e-05  5.1431e-06  2.5278e-05  1.4837e-06  1.4435e-06  0:01:39  131
 29870  3.4527e-05  1.2445e-05  5.1426e-06  2.5276e-05  1.4835e-06  1.4436e-06  0:01:38  130
 29871  3.4525e-05  1.2444e-05  5.1421e-06  2.5274e-05  1.4833e-06  1.4436e-06  0:01:37  129
 29872  3.4522e-05  1.2443e-05  5.1416e-06  2.5272e-05  1.4831e-06  1.4437e-06  0:01:37  128

  iter  continuity  x-velocity  y-velocity      energy           k       omega     time/iter
 29873  3.4520e-05  1.2442e-05  5.1412e-06  2.5270e-05  1.4829e-06  1.4437e-06  0:01:36  127
 29874  3.4518e-05  1.2441e-05  5.1407e-06  2.5267e-05  1.4828e-06  1.4438e-06  0:01:35  126
 29875  3.4516e-05  1.2440e-05  5.1402e-06  2.5265e-05  1.4826e-06  1.4438e-06  0:01:34  125
 29876  3.4514e-05  1.2439e-05  5.1397e-06  2.5263e-05  1.4824e-06  1.4439e-06  0:01:34  124
 29877  3.4511e-05  1.2438e-05  5.1393e-06  2.5261e-05  1.4822e-06  1.4440e-06  0:01:33  123
 29878  3.4509e-05  1.2437e-05  5.1388e-06  2.5258e-05  1.4820e-06  1.4440e-06  0:01:32  122
 29879  3.4507e-05  1.2436e-05  5.1383e-06  2.5256e-05  1.4818e-06  1.4441e-06  0:01:32  121
 29880  3.4505e-05  1.2435e-05  5.1378e-06  2.5254e-05  1.4817e-06  1.4441e-06  0:01:31  120
 29881  3.4502e-05  1.2434e-05  5.1374e-06  2.5252e-05  1.4815e-06  1.4442e-06  0:01:30  119
 29882  3.4500e-05  1.2434e-05  5.1369e-06  2.5250e-05  1.4813e-06  1.4443e-06  0:01:29  118
 29883  3.4498e-05  1.2433e-05  5.1364e-06  2.5247e-05  1.4811e-06  1.4443e-06  0:01:28  117

  iter  continuity  x-velocity  y-velocity      energy           k       omega     time/iter
 29884  3.4496e-05  1.2432e-05  5.1359e-06  2.5245e-05  1.4809e-06  1.4444e-06  0:01:28  116
 29885  3.4494e-05  1.2431e-05  5.1355e-06  2.5243e-05  1.4807e-06  1.4444e-06  0:01:27  115
 29886  3.4491e-05  1.2430e-05  5.1350e-06  2.5241e-05  1.4806e-06  1.4445e-06  0:01:26  114
 29887  3.4489e-05  1.2429e-05  5.1345e-06  2.5239e-05  1.4804e-06  1.4445e-06  0:01:26  113
 29888  3.4487e-05  1.2428e-05  5.1341e-06  2.5236e-05  1.4802e-06  1.4446e-06  0:01:25  112
 29889  3.4485e-05  1.2427e-05  5.1336e-06  2.5234e-05  1.4800e-06  1.4447e-06  0:01:24  111
 29890  3.4482e-05  1.2426e-05  5.1331e-06  2.5232e-05  1.4798e-06  1.4447e-06  0:01:23  110
 29891  3.4480e-05  1.2425e-05  5.1326e-06  2.5230e-05  1.4797e-06  1.4448e-06  0:01:23  109
 29892  3.4478e-05  1.2424e-05  5.1322e-06  2.5228e-05  1.4795e-06  1.4448e-06  0:01:22  108
 29893  3.4476e-05  1.2423e-05  5.1317e-06  2.5225e-05  1.4793e-06  1.4449e-06  0:01:21  107
 29894  3.4474e-05  1.2422e-05  5.1312e-06  2.5223e-05  1.4791e-06  1.4449e-06  0:01:21  106

  iter  continuity  x-velocity  y-velocity      energy           k       omega     time/iter
 29895  3.4471e-05  1.2421e-05  5.1308e-06  2.5221e-05  1.4789e-06  1.4450e-06  0:01:20  105
 29896  3.4469e-05  1.2420e-05  5.1303e-06  2.5219e-05  1.4787e-06  1.4451e-06  0:01:19  104
 29897  3.4467e-05  1.2419e-05  5.1298e-06  2.5217e-05  1.4786e-06  1.4451e-06  0:01:18  103
 29898  3.4465e-05  1.2418e-05  5.1294e-06  2.5214e-05  1.4784e-06  1.4452e-06  0:01:17  102
 29899  3.4463e-05  1.2417e-05  5.1289e-06  2.5212e-05  1.4782e-06  1.4452e-06  0:01:16  101
 29900  3.4460e-05  1.2416e-05  5.1284e-06  2.5210e-05  1.4780e-06  1.4453e-06  0:01:16  100
 29901  3.4458e-05  1.2415e-05  5.1280e-06  2.5208e-05  1.4778e-06  1.4454e-06  0:01:15   99
 29902  3.4456e-05  1.2414e-05  5.1275e-06  2.5206e-05  1.4776e-06  1.4454e-06  0:01:14   98
 29903  3.4454e-05  1.2413e-05  5.1270e-06  2.5203e-05  1.4775e-06  1.4455e-06  0:01:13   97
 29904  3.4452e-05  1.2412e-05  5.1266e-06  2.5201e-05  1.4773e-06  1.4455e-06  0:01:13   96
 29905  3.4449e-05  1.2411e-05  5.1261e-06  2.5199e-05  1.4771e-06  1.4456e-06  0:01:12   95

  iter  continuity  x-velocity  y-velocity      energy           k       omega     time/iter
 29906  3.4447e-05  1.2410e-05  5.1256e-06  2.5197e-05  1.4769e-06  1.4456e-06  0:01:11   94
 29907  3.4445e-05  1.2409e-05  5.1252e-06  2.5194e-05  1.4767e-06  1.4457e-06  0:01:10   93
 29908  3.4443e-05  1.2408e-05  5.1247e-06  2.5192e-05  1.4766e-06  1.4458e-06  0:01:09   92
 29909  3.4440e-05  1.2407e-05  5.1242e-06  2.5190e-05  1.4764e-06  1.4458e-06  0:01:09   91
 29910  3.4438e-05  1.2406e-05  5.1238e-06  2.5188e-05  1.4762e-06  1.4459e-06  0:01:08   90
 29911  3.4436e-05  1.2405e-05  5.1233e-06  2.5186e-05  1.4760e-06  1.4459e-06  0:01:07   89
 29912  3.4434e-05  1.2404e-05  5.1228e-06  2.5183e-05  1.4758e-06  1.4460e-06  0:01:06   88
 29913  3.4432e-05  1.2403e-05  5.1224e-06  2.5181e-05  1.4756e-06  1.4460e-06  0:01:06   87
 29914  3.4429e-05  1.2402e-05  5.1219e-06  2.5179e-05  1.4755e-06  1.4461e-06  0:01:05   86
 29915  3.4427e-05  1.2401e-05  5.1214e-06  2.5177e-05  1.4753e-06  1.4462e-06  0:01:04   85
 29916  3.4425e-05  1.2400e-05  5.1210e-06  2.5175e-05  1.4751e-06  1.4462e-06  0:01:03   84

  iter  continuity  x-velocity  y-velocity      energy           k       omega     time/iter
 29917  3.4423e-05  1.2399e-05  5.1205e-06  2.5172e-05  1.4749e-06  1.4463e-06  0:01:03   83
 29918  3.4421e-05  1.2399e-05  5.1200e-06  2.5170e-05  1.4747e-06  1.4463e-06  0:01:04   82
 29919  3.4418e-05  1.2398e-05  5.1196e-06  2.5168e-05  1.4746e-06  1.4464e-06  0:01:03   81
 29920  3.4416e-05  1.2397e-05  5.1191e-06  2.5166e-05  1.4744e-06  1.4464e-06  0:01:02   80
 29921  3.4414e-05  1.2396e-05  5.1187e-06  2.5164e-05  1.4742e-06  1.4465e-06  0:01:01   79
 29922  3.4412e-05  1.2395e-05  5.1182e-06  2.5161e-05  1.4740e-06  1.4466e-06  0:01:00   78
 29923  3.4410e-05  1.2394e-05  5.1177e-06  2.5159e-05  1.4738e-06  1.4466e-06  0:00:59   77
 29924  3.4407e-05  1.2393e-05  5.1173e-06  2.5157e-05  1.4736e-06  1.4467e-06  0:00:58   76
 29925  3.4405e-05  1.2392e-05  5.1168e-06  2.5155e-05  1.4735e-06  1.4467e-06  0:00:57   75
 29926  3.4403e-05  1.2391e-05  5.1164e-06  2.5153e-05  1.4733e-06  1.4468e-06  0:00:56   74
 29927  3.4401e-05  1.2390e-05  5.1159e-06  2.5150e-05  1.4731e-06  1.4469e-06  0:00:55   73

  iter  continuity  x-velocity  y-velocity      energy           k       omega     time/iter
 29928  3.4399e-05  1.2389e-05  5.1154e-06  2.5148e-05  1.4729e-06  1.4469e-06  0:00:55   72
 29929  3.4396e-05  1.2388e-05  5.1150e-06  2.5146e-05  1.4727e-06  1.4470e-06  0:00:54   71
 29930  3.4394e-05  1.2387e-05  5.1145e-06  2.5144e-05  1.4726e-06  1.4470e-06  0:00:53   70
 29931  3.4392e-05  1.2386e-05  5.1141e-06  2.5142e-05  1.4724e-06  1.4471e-06  0:00:52   69
 29932  3.4390e-05  1.2385e-05  5.1136e-06  2.5139e-05  1.4722e-06  1.4472e-06  0:00:51   68
 29933  3.4388e-05  1.2384e-05  5.1132e-06  2.5137e-05  1.4720e-06  1.4472e-06  0:00:51   67
 29934  3.4386e-05  1.2383e-05  5.1127e-06  2.5135e-05  1.4718e-06  1.4473e-06  0:00:50   66
 29935  3.4383e-05  1.2382e-05  5.1122e-06  2.5133e-05  1.4716e-06  1.4473e-06  0:00:49   65
 29936  3.4381e-05  1.2381e-05  5.1118e-06  2.5130e-05  1.4715e-06  1.4474e-06  0:00:48   64
 29937  3.4379e-05  1.2380e-05  5.1113e-06  2.5128e-05  1.4713e-06  1.4475e-06  0:00:48   63
 29938  3.4377e-05  1.2379e-05  5.1109e-06  2.5126e-05  1.4711e-06  1.4475e-06  0:00:47   62

  iter  continuity  x-velocity  y-velocity      energy           k       omega     time/iter
 29939  3.4375e-05  1.2378e-05  5.1104e-06  2.5124e-05  1.4709e-06  1.4476e-06  0:00:46   61
 29940  3.4372e-05  1.2377e-05  5.1100e-06  2.5122e-05  1.4707e-06  1.4476e-06  0:00:45   60
 29941  3.4370e-05  1.2376e-05  5.1095e-06  2.5119e-05  1.4706e-06  1.4477e-06  0:00:45   59
 29942  3.4368e-05  1.2375e-05  5.1090e-06  2.5117e-05  1.4704e-06  1.4477e-06  0:00:44   58
 29943  3.4366e-05  1.2374e-05  5.1086e-06  2.5115e-05  1.4702e-06  1.4478e-06  0:00:43   57
 29944  3.4364e-05  1.2373e-05  5.1081e-06  2.5113e-05  1.4700e-06  1.4479e-06  0:00:42   56
 29945  3.4361e-05  1.2372e-05  5.1077e-06  2.5111e-05  1.4698e-06  1.4479e-06  0:00:42   55
 29946  3.4359e-05  1.2371e-05  5.1072e-06  2.5108e-05  1.4696e-06  1.4480e-06  0:00:45   54
 29947  3.4357e-05  1.2370e-05  5.1068e-06  2.5106e-05  1.4695e-06  1.4480e-06  0:00:43   53
 29948  3.4355e-05  1.2369e-05  5.1063e-06  2.5104e-05  1.4693e-06  1.4481e-06  0:00:42   52
 29949  3.4353e-05  1.2368e-05  5.1059e-06  2.5102e-05  1.4691e-06  1.4482e-06  0:00:40   51

  iter  continuity  x-velocity  y-velocity      energy           k       omega     time/iter
 29950  3.4351e-05  1.2367e-05  5.1054e-06  2.5100e-05  1.4689e-06  1.4482e-06  0:00:39   50
 29951  3.4348e-05  1.2366e-05  5.1050e-06  2.5097e-05  1.4687e-06  1.4483e-06  0:00:38   49
 29952  3.4346e-05  1.2365e-05  5.1045e-06  2.5095e-05  1.4686e-06  1.4483e-06  0:00:37   48
 29953  3.4344e-05  1.2364e-05  5.1041e-06  2.5093e-05  1.4684e-06  1.4484e-06  0:00:36   47
 29954  3.4342e-05  1.2363e-05  5.1036e-06  2.5091e-05  1.4682e-06  1.4484e-06  0:00:35   46
 29955  3.4340e-05  1.2362e-05  5.1032e-06  2.5089e-05  1.4680e-06  1.4485e-06  0:00:35   45
 29956  3.4337e-05  1.2362e-05  5.1027e-06  2.5086e-05  1.4678e-06  1.4486e-06  0:00:34   44
 29957  3.4335e-05  1.2361e-05  5.1023e-06  2.5084e-05  1.4676e-06  1.4486e-06  0:00:33   43
 29958  3.4333e-05  1.2360e-05  5.1018e-06  2.5082e-05  1.4675e-06  1.4487e-06  0:00:33   42
 29959  3.4331e-05  1.2359e-05  5.1014e-06  2.5080e-05  1.4673e-06  1.4487e-06  0:00:32   41
 29960  3.4329e-05  1.2358e-05  5.1009e-06  2.5078e-05  1.4671e-06  1.4488e-06  0:00:31   40

  iter  continuity  x-velocity  y-velocity      energy           k       omega     time/iter
 29961  3.4326e-05  1.2357e-05  5.1005e-06  2.5075e-05  1.4669e-06  1.4489e-06  0:00:30   39
 29962  3.4324e-05  1.2356e-05  5.1000e-06  2.5073e-05  1.4667e-06  1.4489e-06  0:00:29   38
 29963  3.4322e-05  1.2355e-05  5.0996e-06  2.5071e-05  1.4666e-06  1.4490e-06  0:00:29   37
 29964  3.4320e-05  1.2354e-05  5.0991e-06  2.5069e-05  1.4664e-06  1.4490e-06  0:00:28   36
 29965  3.4318e-05  1.2353e-05  5.0987e-06  2.5067e-05  1.4662e-06  1.4491e-06  0:00:27   35
 29966  3.4316e-05  1.2352e-05  5.0982e-06  2.5064e-05  1.4660e-06  1.4491e-06  0:00:26   34
 29967  3.4313e-05  1.2351e-05  5.0978e-06  2.5062e-05  1.4658e-06  1.4492e-06  0:00:25   33
 29968  3.4311e-05  1.2350e-05  5.0973e-06  2.5060e-05  1.4657e-06  1.4493e-06  0:00:24   32
 29969  3.4309e-05  1.2349e-05  5.0969e-06  2.5058e-05  1.4655e-06  1.4493e-06  0:00:24   31
 29970  3.4307e-05  1.2348e-05  5.0964e-06  2.5056e-05  1.4653e-06  1.4494e-06  0:00:23   30
 29971  3.4305e-05  1.2347e-05  5.0960e-06  2.5053e-05  1.4651e-06  1.4494e-06  0:00:22   29

  iter  continuity  x-velocity  y-velocity      energy           k       omega     time/iter
 29972  3.4303e-05  1.2346e-05  5.0955e-06  2.5051e-05  1.4649e-06  1.4495e-06  0:00:21   28
 29973  3.4300e-05  1.2345e-05  5.0951e-06  2.5049e-05  1.4647e-06  1.4495e-06  0:00:21   27
 29974  3.4298e-05  1.2344e-05  5.0946e-06  2.5047e-05  1.4646e-06  1.4496e-06  0:00:20   26
 29975  3.4296e-05  1.2343e-05  5.0942e-06  2.5045e-05  1.4644e-06  1.4497e-06  0:00:19   25
 29976  3.4294e-05  1.2342e-05  5.0938e-06  2.5042e-05  1.4642e-06  1.4497e-06  0:00:18   24
 29977  3.4292e-05  1.2341e-05  5.0933e-06  2.5040e-05  1.4640e-06  1.4498e-06  0:00:17   23
 29978  3.4290e-05  1.2340e-05  5.0929e-06  2.5038e-05  1.4638e-06  1.4498e-06  0:00:17   22
 29979  3.4287e-05  1.2339e-05  5.0924e-06  2.5036e-05  1.4637e-06  1.4499e-06  0:00:16   21
 29980  3.4285e-05  1.2338e-05  5.0920e-06  2.5034e-05  1.4635e-06  1.4500e-06  0:00:15   20
 29981  3.4283e-05  1.2337e-05  5.0915e-06  2.5031e-05  1.4633e-06  1.4500e-06  0:00:14   19
 29982  3.4281e-05  1.2336e-05  5.0911e-06  2.5029e-05  1.4631e-06  1.4501e-06  0:00:14   18

  iter  continuity  x-velocity  y-velocity      energy           k       omega     time/iter
 29983  3.4279e-05  1.2335e-05  5.0906e-06  2.5027e-05  1.4629e-06  1.4501e-06  0:00:13   17
 29984  3.4277e-05  1.2334e-05  5.0902e-06  2.5025e-05  1.4628e-06  1.4502e-06  0:00:12   16
 29985  3.4274e-05  1.2333e-05  5.0898e-06  2.5023e-05  1.4626e-06  1.4502e-06  0:00:11   15
 29986  3.4272e-05  1.2332e-05  5.0893e-06  2.5020e-05  1.4624e-06  1.4503e-06  0:00:11   14
 29987  3.4270e-05  1.2331e-05  5.0889e-06  2.5018e-05  1.4622e-06  1.4504e-06  0:00:10   13
 29988  3.4268e-05  1.2330e-05  5.0884e-06  2.5016e-05  1.4620e-06  1.4504e-06  0:00:09   12
 29989  3.4266e-05  1.2329e-05  5.0880e-06  2.5014e-05  1.4618e-06  1.4505e-06  0:00:08   11
 29990  3.4264e-05  1.2328e-05  5.0875e-06  2.5012e-05  1.4617e-06  1.4505e-06  0:00:08   10
 29991  3.4261e-05  1.2327e-05  5.0871e-06  2.5009e-05  1.4615e-06  1.4506e-06  0:00:07    9
 29992  3.4259e-05  1.2326e-05  5.0867e-06  2.5007e-05  1.4613e-06  1.4506e-06  0:00:06    8
 29993  3.4257e-05  1.2325e-05  5.0862e-06  2.5005e-05  1.4611e-06  1.4507e-06  0:00:05    7

  iter  continuity  x-velocity  y-velocity      energy           k       omega     time/iter
 29994  3.4255e-05  1.2325e-05  5.0858e-06  2.5003e-05  1.4609e-06  1.4508e-06  0:00:05    6
 29995  3.4253e-05  1.2324e-05  5.0853e-06  2.5001e-05  1.4608e-06  1.4508e-06  0:00:04    5
 29996  3.4251e-05  1.2323e-05  5.0849e-06  2.4998e-05  1.4606e-06  1.4509e-06  0:00:03    4
 29997  3.4248e-05  1.2322e-05  5.0845e-06  2.4996e-05  1.4604e-06  1.4509e-06  0:00:02    3
 29998  3.4246e-05  1.2321e-05  5.0840e-06  2.4994e-05  1.4602e-06  1.4510e-06  0:00:02    2
 29999  3.4244e-05  1.2320e-05  5.0836e-06  2.4992e-05  1.4600e-06  1.4511e-06  0:00:01    1

Adapting mesh...
done.
 30000  3.4245e-05  1.2319e-05  5.0836e-06  2.4991e-05  1.4599e-06  1.4511e-06  0:00:00    0
#t
;

(ti-menu-load-string (format #f "/plot plot yes M4_N2_295K_Pin_4830_Pout_23_Bham_DBS_Implicit_25/axial_pressure yes no no total-pressure yes 1 0 axis ()"))
/plot plot yes M4_N2_295K_Pin_4830_Pout_23_Bham_DBS_Implicit_25/axial_pressure yes no no total-pressure yes 1 0 axis ()#t


> (ti-menu-load-string (format #f "/plot plot yes M4_N2_295K_Pin_4830_Pout_23_Bham_DBS_Implicit_25/axial_mach yes no no mach-number yes 1 0 axis ()"))
/plot plot yes M4_N2_295K_Pin_4830_Pout_23_Bham_DBS_Implicit_25/axial_mach yes no no mach-number yes 1 0 axis ()#t


> (ti-menu-load-string (format #f "/plot plot yes M4_N2_295K_Pin_4830_Pout_23_Bham_DBS_Implicit_25/axial_temperature yes no no temperature yes 1 0 axis ()"))
/plot plot yes M4_N2_295K_Pin_4830_Pout_23_Bham_DBS_Implicit_25/axial_temperature yes no no temperature yes 1 0 axis ()#t


> (ti-menu-load-string (format #f "/plot plot yes M4_N2_295K_Pin_4830_Pout_23_Bham_DBS_Implicit_25/axial_density yes no no density yes 1 0 axis ()"))
/plot plot yes M4_N2_295K_Pin_4830_Pout_23_Bham_DBS_Implicit_25/axial_density yes no no density yes 1 0 axis ()#t


> 
adjoint/                mesh/                   report/
define/                 parallel/               server/
display/                plot/                   solve/
exit                    preferences/            surface/
file/                   print-license-usage     views/

> (ti-menu-load-string (format #f "/file/write-case M4_N2_295K_Pin_4830_Pout_23_Bham_DBS_Implicit_25/CFD_Data.cas y"))
/file/write-case M4_N2_295K_Pin_4830_Pout_23_Bham_DBS_Implicit_25/CFD_Data.cas Fast-loading "/apps/applications/ansys/2023R1/1/default/v231/fluent/fluent23.1.0/addons/afd/lib/hdfio.bin"
Done.

Writing to d13s9b3.arc4.leeds.ac.uk:"/nobackup/scldr/ACRE_copy/M4_N2_295K_Pin_4830_Pout_23_Bham_DBS_Implicit_25/CFD_Data.cas.h5" in NODE0 mode and compression level 1 ...
Grouping cells for Laplace smoothing ...
     1514966 cells,     2 zones ...
     3058422 faces,    18 zones ...
     1508512 nodes,     1 zone  ...
  Done.

  Writing automatic adaption criteria ...
  Done.
Done.
yinvalid command [y]
#t


> (ti-menu-load-string (format #f "/file/write-data M4_N2_295K_Pin_4830_Pout_23_Bham_DBS_Implicit_25/CFD_Data.dat y"))
/file/write-data M4_N2_295K_Pin_4830_Pout_23_Bham_DBS_Implicit_25/CFD_Data.dat 
Writing to d13s9b3.arc4.leeds.ac.uk:"/nobackup/scldr/ACRE_copy/M4_N2_295K_Pin_4830_Pout_23_Bham_DBS_Implicit_25/CFD_Data.dat.h5" in NODE0 mode and compression level 1 ...
  Writing results.
Done.
yinvalid command [y]
#t


> 
adjoint/                mesh/                   report/
define/                 parallel/               server/
display/                plot/                   solve/
exit                    preferences/            surface/
file/                   print-license-usage     views/

> exit 
Posting ANSYS Product Improvement Program performance data 
Done.
Auto-Transcript Stop Time:  00:54:20, 31 Oct 2023 
Total Transcript Time: 6 Hour 30 Minute 30 Second.

Automatic transcript closed.
