/apps/applications/ansys/2023R1/1/default/v231/fluent/fluent23.1.0/bin/fluent -r23.1.0 -t 40 2ddp -g -i /nobackup/scldr/ACRE/CFD_Macro.scm
/apps/applications/ansys/2023R1/1/default/v231/fluent/fluent23.1.0/cortex/lnamd64/cortex.23.1.0 -f fluent -g -i /nobackup/scldr/ACRE/CFD_Macro.scm (fluent "2ddp -pshmem  -host -r23.1.0 -t40 -mpi=intel -path/apps/applications/ansys/2023R1/1/default/v231/fluent -ssh")

Opening input/output transcript to file "/nobackup/scldr/ACRE/fluent-20240112-102055-17033.trn".
Auto-Transcript Start Time:  10:20:55, 12 Jan 2024 
/apps/applications/ansys/2023R1/1/default/v231/fluent/fluent23.1.0/bin/fluent -r23.1.0 2ddp -pshmem -host -t40 -mpi=intel -path/apps/applications/ansys/2023R1/1/default/v231/fluent -ssh -cx d13s9b1.arc4.leeds.ac.uk:33258:45378
Starting /apps/applications/ansys/2023R1/1/default/v231/fluent/fluent23.1.0/lnamd64/2ddp_host/fluent.23.1.0 host -cx d13s9b1.arc4.leeds.ac.uk:33258:45378 "(list (rpsetvar (QUOTE parallel/function) "fluent 2ddp -flux -node -r23.1.0 -t40 -pshmem -mpi=intel -ssh") (rpsetvar (QUOTE parallel/rhost) "") (rpsetvar (QUOTE parallel/ruser) "") (rpsetvar (QUOTE parallel/nprocs_string) "40") (rpsetvar (QUOTE parallel/auto-spawn?) #t) (rpsetvar (QUOTE parallel/trace-level) 0) (rpsetvar (QUOTE parallel/remote-shell) 1) (rpsetvar (QUOTE parallel/path) "/apps/applications/ansys/2023R1/1/default/v231/fluent") (rpsetvar (QUOTE parallel/hostsfile) "") (rpsetvar (QUOTE gpuapp/devices) ""))"

              Welcome to ANSYS Fluent 2023 R1

              Copyright 1987-2023 ANSYS, Inc. All Rights Reserved.
              Unauthorized use, distribution or duplication is prohibited.
              This product is subject to U.S. laws governing export and re-export.
              For full Legal Notice, see documentation.

Build Time: Nov 28 2022 09:30:44 EST  Build Id: 10208  
 
Connected License Server List:	1055@ansys-research.leeds.ac.uk

     --------------------------------------------------------------
     This is an academic version of ANSYS FLUENT. Usage of this product
     license is limited to the terms and conditions specified in your ANSYS
     license form, additional terms section.
     --------------------------------------------------------------
Host spawning Node 0 on machine "d13s9b1.arc4.leeds.ac.uk" (unix).
/apps/applications/ansys/2023R1/1/default/v231/fluent/fluent23.1.0/bin/fluent -r23.1.0 2ddp -flux -node -t40 -pshmem -mpi=intel -ssh -mport 10.12.170.18:10.12.170.18:41241:0
Starting /apps/applications/ansys/2023R1/1/default/v231/fluent/fluent23.1.0/multiport/mpi/lnamd64/intel2021/bin/mpirun --rsh=ssh -f /tmp/fluent-appfile.scldr.17417 -genv FI_PROVIDER tcp -genv FLUENT_ARCH lnamd64 -genv I_MPI_DEBUG 0 -genv I_MPI_ADJUST_REDUCE 2 -genv I_MPI_ADJUST_ALLREDUCE 2 -genv I_MPI_ADJUST_BCAST 8 -genv I_MPI_ADJUST_BARRIER 2 -genv I_MPI_ADJUST_ALLGATHER 2 -genv I_MPI_ADJUST_GATHER 2 -genv I_MPI_ADJUST_ALLTOALL 1 -genv I_MPI_ADJUST_SCATTER 2 -genv I_MPI_ADJUST_SCATTERV 2 -genv I_MPI_ADJUST_ALLGATHERV 2 -genv I_MPI_ADJUST_GATHERV 2 -genv I_MPI_PLATFORM auto -genv PYTHONHOME /apps/applications/ansys/2023R1/1/default/v231/fluent/fluent23.1.0/../../commonfiles/CPython/3_7/linx64/Release/python -genv FLUENT_PROD_DIR /apps/applications/ansys/2023R1/1/default/v231/fluent/fluent23.1.0 -genv FLUENT_AFFINITY 0 -genv I_MPI_PIN enable -genv KMP_AFFINITY disabled -n 40 /apps/applications/ansys/2023R1/1/default/v231/fluent/fluent23.1.0/lnamd64/2ddp_node/fluent_mpi.23.1.0 node -mpiw intel -pic shmem -mport 10.12.170.18:10.12.170.18:41241:0

---------------------------------------------------------------------------------------
ID     Hostname              Core   O.S.      PID          Vendor                     
---------------------------------------------------------------------------------------
n0-39  d13s9b1.arc4.leeds.a  40/40  Linux-64  17471-17510  Intel(R) Xeon(R) Gold 6230 
host   d13s9b1.arc4.leeds.a         Linux-64  17217        Intel(R) Xeon(R) Gold 6230 

MPI Option Selected: intel
Selected system interconnect: shared-memory
---------------------------------------------------------------------------------------


Initializing SGE
Done.
Cleanup script file is /nobackup/scldr/ACRE/cleanup-fluent-d13s9b1.arc4.leeds.ac.uk-17217.sh

Posting ANSYS Product Improvement Program startup data
Done.

Reading journal file /nobackup/scldr/ACRE/CFD_Macro.scm...

> (ti-menu-load-string (format #f "file/read-case /nobackup/scldr/ACRE/M2.25_Pres_5222_Pchm_170_300K_Leeds/Mesh.msh ok"))
file/read-case /nobackup/scldr/ACRE/M2.25_Pres_5222_Pchm_170_300K_Leeds/Mesh.msh 
Reading "/nobackup/scldr/ACRE/M2.25_Pres_5222_Pchm_170_300K_Leeds/Mesh.msh"...

Buffering for file scan...

  537170 nodes.
  535094 quadrilateral cells, zone 14.
 1068113 2D interior faces, zone 15.
     141 2D wall faces, zone 16.
      22 2D pressure-inlet faces, zone 17.
     301 2D wall faces, zone 18.
     298 2D wall faces, zone 19.
    1288 2D wall faces, zone 20.
      25 2D pressure-outlet faces, zone 21.
     383 2D wall faces, zone 22.
    1692 2D axis faces, zone 23.

Building...
     mesh
	auto partitioning mesh by Metis (fast),
	distributing mesh
		parts........................................,
		faces........................................,
		nodes........................................,
		cells........................................,
        bandwidth reduction using Reverse Cuthill-McKee: 11646/127 = 91.7008
     materials,
     interface,
     domains,
     zones,
	axis
	right_reactor_wall
	outlet
	top_reactor_wall
	left_reactor_wall
	nozzle_wall
	inlet
	reservoir_wall
	int_fluid
	fluid
     parallel,
Done.
Warning: The use of axis boundary conditions is not appropriate for
         a 2D/3D flow problem. Please consider changing the zone
         type to symmetry or wall, or the problem to axisymmetric.

Warning: The use of axis boundary conditions is not appropriate for
         a 2D/3D flow problem. Please consider changing the zone
         type to symmetry or wall, or the problem to axisymmetric.

okinvalid command [ok]
#t


> (ti-menu-load-string (format #f "/mesh/scale 0.001 0.001"))
/mesh/scale 0.001 0.001#t


> (ti-menu-load-string (format #f "/define/models/axisymmetric yes"))
/define/models/axisymmetric yes#t


> (ti-menu-load-string (format #f "/define/models/solver/pressure-based yes"))
/define/models/solver/pressure-based yes#t
; density-based explicit, pressure-based or density-based-implicit
(ti-menu-load-string (format #f "/define/models/energy yes yes yes"))
/define/models/energy yes yes yes#t
  ; enable energy model?, compute viscout energy dissipation?, Including diffusion at inlets?
(ti-menu-load-string (format #f "/define/models/viscous/kw-sst yes"))
/define/models/viscous/kw-sst yes#t


> (ti-menu-load-string (format #f "(rpsetvar' sst-a1 0.31)"))
(rpsetvar' sst-a1 0.31)
sst-a1
#t
  ; 0.31
(ti-menu-load-string (format #f "(rpsetvar' sst-kappa 0.41)"))
(rpsetvar' sst-kappa 0.41)
sst-kappa
#t
; 0.41
(ti-menu-load-string (format #f "(rpsetvar' sst-beta-i2 0.0828)"))
(rpsetvar' sst-beta-i2 0.0828)
sst-beta-i2
#t
 ; 0.0828
(ti-menu-load-string (format #f "(rpsetvar' sst-beta-i1 0.075)"))
(rpsetvar' sst-beta-i1 0.075)
sst-beta-i1
#t
 ; 0.075
(ti-menu-load-string (format #f "(rpsetvar' sst-sig-w2 1.168)"))
(rpsetvar' sst-sig-w2 1.168)
sst-sig-w2
#t
 ; 1.168
(ti-menu-load-string (format #f "(rpsetvar' sst-sig-w1 2)"))
(rpsetvar' sst-sig-w1 2)
sst-sig-w1
#t
 ; 2
(ti-menu-load-string (format #f "(rpsetvar' sst-sig-k2 1)"))
(rpsetvar' sst-sig-k2 1)
sst-sig-k2
#t
 ; 1
(ti-menu-load-string (format #f "(rpsetvar' sst-sig-k1 1.176)"))
(rpsetvar' sst-sig-k1 1.176)
sst-sig-k1
#t
 ; 1.176
(ti-menu-load-string (format #f "/define/materials/copy fluid nitrogen"))
/define/materials/copy fluid nitrogen
nitrogen copied from database.

#t


> (ti-menu-load-string (format #f "/define/boundary-conditions/fluid fluid yes nitrogen no no no no no no no"))
/define/boundary-conditions/fluid (fluid)
fluid yes nitrogen no no no no no no no#t


> (ti-menu-load-string (format #f "/define/materials delete air"))
/define/materials delete air#t


> (ti-menu-load-string (format #f "/define/materials change-create nitrogen nitrogen yes ideal-gas no no yes sutherland three-coefficient-method 1.663e-05 273.11 106.67 no no no"))
/define/materials change-create nitrogen nitrogen nitrogen is a fluid
yes 
Density
ideal-gas no data required.

no no yes 
Viscosity
sutherland three-coefficient-method 1.663e-05 273.11 106.67 
no no no#t


> (ti-menu-load-string (format #f "/define/models/viscous/turb-compressibility no"))
/define/models/viscous/turb-compressibility no#t
 ; Turning compressbility effects off
(ti-menu-load-string (format #f "/define/boundary-conditions/zone-type inlet pressure-inlet"))
/define/boundary-conditions/zone-type inlet pressure-inlet#t


> (ti-menu-load-string (format #f "/define/boundary-conditions/zone-type outlet pressure-outlet"))
/define/boundary-conditions/zone-type outlet pressure-outlet#t


> (ti-menu-load-string (format #f "/define/boundary-conditions/wall left_reactor_wall 0 no 0 no no no 0 no no no no 0 no 0 no 1"))
/define/boundary-conditions/wall (reservoir_wall nozzle_wall left_reactor_wall top_reactor_wall right_reactor_wall)
left_reactor_wall 0 no 0 no no no 0 no no no no 0 no 0 no 1#t


> (ti-menu-load-string (format #f "/define/boundary-conditions/wall nozzle_wall 0 no 0 no no no 0 no no no no 0 no 0 no 1"))
/define/boundary-conditions/wall (reservoir_wall nozzle_wall left_reactor_wall top_reactor_wall right_reactor_wall)
nozzle_wall 0 no 0 no no no 0 no no no no 0 no 0 no 1#t


> (ti-menu-load-string (format #f "/define/boundary-conditions/wall reservoir_wall 0 no 0 no no no 0 no no no no 0 no 0 no 1"))
/define/boundary-conditions/wall (reservoir_wall nozzle_wall left_reactor_wall top_reactor_wall right_reactor_wall)
reservoir_wall 0 no 0 no no no 0 no no no no 0 no 0 no 1#t


> (ti-menu-load-string (format #f "/define/boundary-conditions/wall top_reactor_wall 0 no 0 no no no 0 no no no no 0 no 0 no 1"))
/define/boundary-conditions/wall (reservoir_wall nozzle_wall left_reactor_wall top_reactor_wall right_reactor_wall)
top_reactor_wall 0 no 0 no no no 0 no no no no 0 no 0 no 1#t


> (ti-menu-load-string (format #f "/define/boundary-conditions/wall right_reactor_wall 0 no 0 no no no 0 no no no no 0 no 0 no 1"))
/define/boundary-conditions/wall (reservoir_wall nozzle_wall left_reactor_wall top_reactor_wall right_reactor_wall)
right_reactor_wall 0 no 0 no no no 0 no no no no 0 no 0 no 1#t


> (ti-menu-load-string (format #f "/define/boundary-conditions/pressure-inlet inlet yes no 5222.73 no 0 no 300 no yes no no yes 40 1"))
/define/boundary-conditions/pressure-inlet (inlet)
inlet yes no 5222.73 no 0 no 300 no yes no no yes 40 1#t


> (ti-menu-load-string (format #f "/define/boundary-conditions/pressure-outlet outlet yes no 170.65 no 300 no yes no no yes 1 1 yes no no"))
/define/boundary-conditions/pressure-outlet (outlet)
outlet yes no 170.65 no 300 no yes no no yes 1 1 yes no no#t


> (ti-menu-load-string (format #f "/define/operating-conditions/operating-pressure 0"))
/define/operating-conditions/operating-pressure 0#t
 ; |Value in Pa|
(ti-menu-load-string (format #f "/solve/monitors/residual/convergence-criteria 1e-5 1e-5 1e-5 1e-5 1e-5 1e-5"))
/solve/monitors/residual/convergence-criteria 1e-5 1e-5 1e-5 1e-5 1e-5 1e-5#t


> (ti-menu-load-string (format #f "/solve/set/discretization-scheme/mom 1"))
/solve/set/discretization-scheme/mom 1#t
		; [0 1 4 6] = [First Order, Second Order, QUICK, Third Order]
(ti-menu-load-string (format #f "/solve/set/discretization-scheme/pressure 12"))
/solve/set/discretization-scheme/pressure 12#t
	; [12 10 14 11 13] = [Second, Standard, PRESTO!, Linear, Body Force Weighted]
(ti-menu-load-string (format #f "/solve/set/discretization-scheme/k 1"))
/solve/set/discretization-scheme/k 1#t
		; [0 1 4 6] = [First Order, Second Order, QUICK, Third Order]
(ti-menu-load-string (format #f "/solve/set/discretization-scheme/density 1"))
/solve/set/discretization-scheme/density 1#t
		; [0 1 4 6] = [First Order, Second Order, QUICK, Third Order]
(ti-menu-load-string (format #f "/solve/set/discretization-scheme/omega 1"))
/solve/set/discretization-scheme/omega 1#t
		; [0 1 4 6] = [First Order, Second Order, QUICK, Third Order]
(ti-menu-load-string (format #f "/solve/set/discretization-scheme/temperature 1"))
/solve/set/discretization-scheme/temperature 1#t
	; [0 1 4 6] = [First Order, Second Order, QUICK, Third Order]
(ti-menu-load-string (format #f "/solve/set/flux-type no 0"))
/solve/set/flux-type no 0#t
 				; [0 1], Rhie-Chow Distance, Rhie-Chow momentum
(ti-menu-load-string (format #f "/solve/set/p-v-coupling 24"))
/solve/set/p-v-coupling 24#t
				; [20 21 22 24] = [SIMPLE, SIMPLEC, PISO, Coupled]
(ti-menu-load-string (format #f "/solve/set/warped-face-gradient-correction enable? yes no"))
/solve/set/warped-face-gradient-correction enable? yes  
 Warped-Face Gradient Correction enabled. 
 Options:
 Fast mode 
 Memory saving mode 
no
 Memory saving mode will be used.#t
 ;

;This is just to help convergence, i have left relaxation parameters as default and it seems to converge fine.
(ti-menu-load-string (format #f "/solve/set/high-order-term-relaxation enable? yes"))
/solve/set/high-order-term-relaxation enable? yes#t
; 
; This sets pseudo transient using automating conservative timestepping with a timestep factor of 0.5. This acts as under-relaxation.
(ti-menu-load-string (format #f "/solve/set/pseudo-transient yes yes 1 0.5 0"))
/solve/set/pseudo-transient yes yes 1 0.5 0#t
 ;

; setup report definitions
(ti-menu-load-string (format #f "/solve/report-definitions add max-mach surface-vertexmax field mach-number surface-names axis"))
/solve/report-definitions add max-mach surface-vertexmax field mach-number surface-names axis#t
;
(ti-menu-load-string (format #f "/solve/report-files/add max-mach report-defs max-mach"))
/solve/report-files/add max-mach report-defs max-mach#t
;

(ti-menu-load-string (format #f "/solve/report-definitions add min-temp surface-vertexmin field temperature surface-names axis"))
/solve/report-definitions add min-temp surface-vertexmin field temperature surface-names axis#t
;
(ti-menu-load-string (format #f "/solve/report-files/add min-temp report-defs min-temp"))
/solve/report-files/add min-temp report-defs min-temp#t
;

(ti-menu-load-string (format #f "/solve/report-files/edit max-mach file-name M2.25_Pres_5222_Pchm_170_300K_Leeds/max-mach-convergence.txt"))
/solve/report-files/edit max-mach file-name M2.25_Pres_5222_Pchm_170_300K_Leeds/max-mach-convergence.txt#t


> (ti-menu-load-string (format #f "/solve/report-files/edit min-temp file-name M2.25_Pres_5222_Pchm_170_300K_Leeds/min-temp-convergence.txt"))
/solve/report-files/edit min-temp file-name M2.25_Pres_5222_Pchm_170_300K_Leeds/min-temp-convergence.txt#t


> 
adjoint/                mesh/                   report/
define/                 parallel/               server/
display/                plot/                   solve/
exit                    preferences/            surface/
file/                   print-license-usage     views/

> 
adjoint/                mesh/                   report/
define/                 parallel/               server/
display/                plot/                   solve/
exit                    preferences/            surface/
file/                   print-license-usage     views/

> ; Initialisation settings and number of itterations
(ti-menu-load-string (format #f "/solve/init/hyb-initialization"))
/solve/init/hyb-initialization
Initialize using the hybrid initialization method.

Checking case topology... 
-This case has both inlets & outlets 
-Pressure information is available at the boundaries

	iter		scalar-0		scalar-1

	1		1.000000e+00	1.000000e+00
	2		1.100036e-06	1.534481e-05
	3		2.286935e-07	2.046198e-06
	4		1.413287e-07	2.660347e-07
	5		1.106521e-07	1.403776e-07
	6		9.149825e-08	7.231893e-08
	7		7.736621e-08	4.640961e-08
	8		6.621454e-08	3.787138e-08
	9		5.688409e-08	3.285997e-08
	10		4.927188e-08	2.906324e-08

Hybrid initialization is done.
#t


> (ti-menu-load-string (format #f "solve init fmg y"))
solve init fmg y
Creating multigrid levels... 
 Grid Level  0: 535094 cells, 1072263 faces, 537170 nodes;  40 clusters
 Grid Level  1: 135163 cells, 541305 faces, 537170 nodes;  40 clusters
 Grid Level  1: 135163 cells, 306153 faces,      0 nodes
 Grid Level  2:  39819 cells, 306363 faces, 537170 nodes;  40 clusters
 Grid Level  2:  39819 cells, 103873 faces,      0 nodes
 Grid Level  3:  12567 cells, 187435 faces, 537170 nodes;  40 clusters
 Grid Level  3:  12567 cells,  36428 faces,      0 nodes
 Grid Level  4:   4124 cells, 120146 faces, 537170 nodes;  40 clusters
 Grid Level  4:   4124 cells,  13692 faces,      0 nodes
 Grid Level  5:   1409 cells,  78779 faces, 537170 nodes;  40 clusters
 Grid Level  5:   1409 cells,   5876 faces,      0 nodes
Done.


FMG: Converge FAS on level 5


FMG: Converge FAS on level 4


FMG: Converge FAS on level 3


FMG: Converge FAS on level 2


FMG: Converge FAS on level 1
0.->1.->2.->3.->4.->5.<<<<<

FMG: Initialize flow for Segregated solution.. . end 
#t


> 
adjoint/                mesh/                   report/
define/                 parallel/               server/
display/                plot/                   solve/
exit                    preferences/            surface/
file/                   print-license-usage     views/

> (ti-menu-load-string (format #f "/mesh/adapt/cell-registers/add yplusrefine type yplus-ystar max-allowed 0.5 min-allowed 0.25 q () q () q ()"))
/mesh/adapt/cell-registers/add yplusrefine type yplus-ystar max-allowed 0.5 min-allowed 0.25 q ()
 q ()
()
 q ()
()
#t


> (ti-menu-load-string (format #f "/mesh/adapt/manage-criteria/add criteria1 type expression refinement-expression \"yplusrefine\" "))
/mesh/adapt/manage-criteria/add criteria1 type expression refinement-expression "yplusrefine" #t


> (ti-menu-load-string (format #f "/mesh/adapt/manage-criteria/edit criteria1 frequency 250"))
/mesh/adapt/manage-criteria/edit criteria1 frequency 250#t


> 
adjoint/                mesh/                   report/
define/                 parallel/               server/
display/                plot/                   solve/
exit                    preferences/            surface/
file/                   print-license-usage     views/

> ;(ti-menu-load-string (format #f "/mesh/adapt/adapt-mesh"))
;(ti-menu-load-string (format #f "/solve/iterate 50"))
;(ti-menu-load-string (format #f "/mesh/adapt/adapt-mesh"))
;(ti-menu-load-string (format #f "/solve/iterate 50"))
;(ti-menu-load-string (format #f "/mesh/adapt/adapt-mesh"))
;(ti-menu-load-string (format #f "/solve/iterate 50"))
;(ti-menu-load-string (format #f "/mesh/adapt/adapt-mesh"))
;(ti-menu-load-string (format #f "/solve/iterate 50"))
;(ti-menu-load-string (format #f "/mesh/adapt/adapt-mesh"))
;(ti-menu-load-string (format #f "/solve/iterate 50"))
;(ti-menu-load-string (format #f "/mesh/adapt/adapt-mesh"))

adjoint/                mesh/                   report/
define/                 parallel/               server/
display/                plot/                   solve/
exit                    preferences/            surface/
file/                   print-license-usage     views/

> (ti-menu-load-string (format #f "/solve/iterate 10000"))
/solve/iterate 10000
  iter  continuity  x-velocity  y-velocity      energy           k       omega     time/iter

Adapting mesh...
done.
     1  1.0000e+00  5.2117e-04  4.7158e-05  1.6125e-03  1.7300e-01  2.8605e-01  1:39:29 9999
     2  6.3838e-01  2.6352e-04  2.0813e-05  1.3378e-03  5.6909e-02  2.7513e-01  1:31:49 9998
     3  4.4999e-01  1.3252e-04  1.2619e-05  8.7356e-04  6.6478e-03  1.6576e-01  1:26:02 9997
     4  3.3895e-01  6.8017e-05  7.9799e-06  5.5140e-04  1.0585e-03  1.1457e-01  1:20:57 9996
     5  2.8418e-01  3.6084e-05  5.7588e-06  3.3617e-04  2.9430e-04  6.9143e-02  1:16:26 9995
     6  2.5749e-01  2.0422e-05  4.5483e-06  2.0732e-04  1.4811e-04  4.1971e-02  1:13:26 9994
     7  2.4272e-01  1.2709e-05  3.7767e-06  1.4000e-04  1.1526e-04  5.7094e-02  1:11:57 9993
     8  2.3082e-01  8.7427e-06  3.2032e-06  1.0985e-04  1.0651e-04  8.4172e-02  1:11:13 9992
     9  2.2411e-01  6.5363e-06  2.7607e-06  9.7376e-05  9.9954e-05  9.6056e-02  1:10:50 9991
    10  2.1846e-01  5.2771e-06  2.3947e-06  9.2750e-05  9.3539e-05  9.9250e-02  1:09:46 9990
    11  2.1221e-01  4.5099e-06  2.0754e-06  8.7986e-05  9.2996e-05  9.6154e-02  1:08:52 9989

  iter  continuity  x-velocity  y-velocity      energy           k       omega     time/iter
    12  2.0850e-01  3.8981e-06  1.7784e-06  7.7093e-05  9.3409e-05  7.8037e-02  1:09:08 9988
    13  2.0437e-01  3.3828e-06  1.5124e-06  6.5103e-05  9.0902e-05  7.1727e-02  1:08:40 9987
    14  2.0059e-01  2.9163e-06  1.2731e-06  5.6613e-05  8.4493e-05  6.5257e-02  1:08:38 9986
    15  1.9671e-01  2.4948e-06  1.0587e-06  4.9039e-05  7.5245e-05  5.8021e-02  1:08:39 9985
    16  1.9278e-01  2.1183e-06  8.7365e-07  3.9539e-05  6.4718e-05  4.8782e-02  1:08:33 9984
    17  1.8919e-01  1.7892e-06  7.2333e-07  2.9997e-05  5.4385e-05  3.8037e-02  1:08:15 9983
    18  1.8550e-01  1.5103e-06  5.9420e-07  2.1808e-05  4.5165e-05  3.9254e-02  1:07:56 9982
    19  1.8166e-01  1.2728e-06  4.7840e-07  1.5165e-05  3.7223e-05  3.5542e-02  1:08:11 9981
    20  1.7803e-01  1.0733e-06  3.8315e-07  9.8495e-06  3.0682e-05  5.4616e-02  1:07:55 9980
    21  1.7423e-01  9.0990e-07  3.0965e-07  7.1378e-06  2.5501e-05  6.8935e-02  1:07:48 9979
    22  1.7032e-01  7.7613e-07  2.5308e-07  5.8932e-06  2.1318e-05  7.1168e-02  1:07:43 9978

  iter  continuity  x-velocity  y-velocity      energy           k       omega     time/iter
    23  1.6627e-01  6.6832e-07  2.1024e-07  5.0205e-06  1.7937e-05  6.8903e-02  1:07:39 9977
    24  1.6243e-01  5.8144e-07  1.7727e-07  4.3345e-06  1.5161e-05  7.2153e-02  1:08:51 9976
    25  1.5861e-01  5.1438e-07  1.5593e-07  3.9193e-06  1.2836e-05  7.4433e-02  1:09:23 9975
    26  1.5467e-01  4.5581e-07  1.4122e-07  3.4654e-06  1.1068e-05  6.8315e-02  1:10:10 9974
    27  1.5090e-01  3.9961e-07  1.1982e-07  3.0588e-06  9.6894e-06  6.0820e-02  1:10:36 9973
    28  1.4724e-01  3.5095e-07  1.0373e-07  2.7086e-06  8.5943e-06  5.4936e-02  1:11:18 9972
    29  1.4374e-01  3.0871e-07  9.1359e-08  2.3355e-06  7.7503e-06  5.0705e-02  1:12:05 9971
    30  1.4029e-01  2.7140e-07  8.1821e-08  2.0353e-06  7.0719e-06  4.4210e-02  1:12:41 9970
    31  1.3697e-01  2.3866e-07  7.3856e-08  1.7764e-06  6.5403e-06  3.5572e-02  1:14:06 9969
    32  1.3381e-01  2.0989e-07  6.7182e-08  1.5695e-06  6.1143e-06  2.7971e-02  1:15:56 9968
    33  1.3076e-01  1.8448e-07  6.1770e-08  1.3805e-06  5.7501e-06  2.1042e-02  1:18:02 9967

  iter  continuity  x-velocity  y-velocity      energy           k       omega     time/iter
    34  1.2775e-01  1.6247e-07  5.7218e-08  1.2253e-06  5.4421e-06  1.6143e-02  1:20:18 9966
    35  1.2486e-01  1.4403e-07  5.3265e-08  1.0971e-06  5.1646e-06  1.2676e-02  1:22:16 9965
    36  1.2206e-01  1.2957e-07  4.9828e-08  9.7319e-07  4.9130e-06  9.6775e-03  1:23:50 9964
    37  1.1928e-01  1.2074e-07  4.6781e-08  8.7488e-07  4.7059e-06  7.8845e-03  1:24:51 9963
    38  1.1659e-01  1.1674e-07  4.4079e-08  8.0132e-07  4.5359e-06  6.8676e-03  1:25:45 9962
    39  1.1396e-01  1.1446e-07  4.1654e-08  7.4493e-07  4.3628e-06  5.7264e-03  1:26:27 9961
    40  1.1140e-01  1.1368e-07  3.9521e-08  6.9641e-07  4.1984e-06  4.6866e-03  1:27:13 9960
    41  1.0893e-01  1.1354e-07  3.7668e-08  6.5587e-07  4.0212e-06  3.6820e-03  1:27:42 9959
    42  1.0659e-01  1.1279e-07  3.5850e-08  6.1888e-07  3.8717e-06  3.0962e-03  1:28:10 9958
    43  1.0434e-01  1.1144e-07  3.4135e-08  5.8610e-07  3.7105e-06  2.7327e-03  1:28:19 9957
    44  1.0212e-01  1.0922e-07  3.2393e-08  5.5583e-07  3.5864e-06  2.3899e-03  1:28:40 9956

  iter  continuity  x-velocity  y-velocity      energy           k       omega     time/iter
    45  9.9943e-02  1.0711e-07  3.0795e-08  5.2839e-07  3.4518e-06  2.1127e-03  1:28:44 9955
    46  9.7868e-02  1.0531e-07  2.9257e-08  5.0263e-07  3.3548e-06  1.8986e-03  1:28:44 9954
    47  9.5841e-02  1.0413e-07  2.7818e-08  4.8135e-07  3.2145e-06  1.7868e-03  1:33:40 9953
    48  9.3867e-02  1.0254e-07  2.6464e-08  4.5940e-07  3.0877e-06  1.6428e-03  1:31:40 9952
    49  9.1982e-02  1.0034e-07  2.5229e-08  4.4052e-07  2.9766e-06  1.4887e-03  1:30:24 9951
    50  9.0166e-02  9.7550e-08  2.4070e-08  4.2359e-07  2.8601e-06  1.3896e-03  1:28:59 9950
    51  8.8466e-02  9.4210e-08  2.3033e-08  4.0773e-07  2.7671e-06  1.2639e-03  1:28:33 9949
    52  8.6823e-02  9.0499e-08  2.2048e-08  3.9376e-07  2.6800e-06  1.1690e-03  1:28:01 9948
    53  8.5258e-02  8.6675e-08  2.1169e-08  3.8092e-07  2.6088e-06  1.1109e-03  1:28:15 9947
    54  8.3684e-02  8.3245e-08  2.0372e-08  3.6921e-07  2.5417e-06  1.0554e-03  1:33:30 9946
    55  8.2194e-02  8.0755e-08  1.9689e-08  3.5838e-07  2.4784e-06  9.6266e-04  1:33:32 9945

  iter  continuity  x-velocity  y-velocity      energy           k       omega     time/iter
    56  8.0757e-02  7.8849e-08  1.9113e-08  3.4859e-07  2.3993e-06  8.7175e-04  1:33:01 9944
    57  7.9369e-02  7.7133e-08  1.8589e-08  3.3846e-07  2.3192e-06  7.9682e-04  1:32:32 9943
    58  7.8030e-02  7.5709e-08  1.8148e-08  3.2910e-07  2.2589e-06  7.8330e-04  1:31:49 9942
    59  7.6734e-02  7.4346e-08  1.7771e-08  3.1984e-07  2.1956e-06  7.7355e-04  1:31:15 9941
    60  7.5447e-02  7.3121e-08  1.7454e-08  3.1205e-07  2.1356e-06  7.5124e-04  1:31:05 9940
    61  7.4184e-02  7.1931e-08  1.7197e-08  3.0340e-07  2.0875e-06  7.2338e-04  1:30:38 9939
    62  7.2943e-02  7.0905e-08  1.6979e-08  2.9551e-07  2.0394e-06  6.3475e-04  1:30:26 9938
    63  7.1702e-02  7.0033e-08  1.6802e-08  2.8753e-07  1.9990e-06  5.5644e-04  1:30:08 9937
    64  7.0511e-02  6.9564e-08  1.6667e-08  2.7964e-07  1.9602e-06  5.5382e-04  1:30:08 9936
    65  6.9298e-02  6.9602e-08  1.6535e-08  2.7224e-07  1.9303e-06  5.3412e-04  1:30:09 9935
    66  6.8095e-02  7.0340e-08  1.6406e-08  2.6563e-07  1.8938e-06  5.0325e-04  1:30:07 9934

  iter  continuity  x-velocity  y-velocity      energy           k       omega     time/iter
    67  6.6911e-02  7.1628e-08  1.6286e-08  2.5854e-07  1.8648e-06  4.8508e-04  1:29:42 9933
    68  6.5709e-02  7.3317e-08  1.6162e-08  2.5225e-07  1.8411e-06  4.5690e-04  1:29:39 9932
    69  6.4524e-02  7.4877e-08  1.6039e-08  2.4597e-07  1.8146e-06  4.3329e-04  1:29:21 9931
    70  6.3336e-02  7.6168e-08  1.5887e-08  2.3940e-07  1.7925e-06  4.1209e-04  1:29:26 9930
    71  6.2088e-02  7.7289e-08  1.5749e-08  2.3290e-07  1.7736e-06  3.9217e-04  1:29:18 9929
    72  6.0836e-02  7.8148e-08  1.5600e-08  2.2666e-07  1.7560e-06  3.6756e-04  1:29:14 9928
    73  5.9571e-02  7.8834e-08  1.5448e-08  2.2113e-07  1.7359e-06  3.4147e-04  1:29:01 9927
    74  5.8306e-02  7.9255e-08  1.5278e-08  2.1586e-07  1.7182e-06  3.2200e-04  1:28:34 9926
    75  5.6990e-02  7.9415e-08  1.5072e-08  2.1014e-07  1.7044e-06  3.0176e-04  1:28:49 9925
    76  5.5692e-02  7.9420e-08  1.4859e-08  2.0444e-07  1.6882e-06  2.8581e-04  1:28:30 9924
    77  5.4367e-02  7.9165e-08  1.4651e-08  1.9942e-07  1.6795e-06  2.6357e-04  1:28:34 9923

  iter  continuity  x-velocity  y-velocity      energy           k       omega     time/iter
    78  5.2959e-02  7.8637e-08  1.4444e-08  1.9399e-07  1.6721e-06  2.4676e-04  1:28:28 9922
    79  5.1557e-02  7.7949e-08  1.4210e-08  1.8870e-07  1.6528e-06  2.2745e-04  1:28:36 9921
    80  5.0055e-02  7.7029e-08  1.3951e-08  1.8322e-07  1.6387e-06  2.0959e-04  1:28:21 9920
    81  4.8560e-02  7.5983e-08  1.3689e-08  1.7797e-07  1.6238e-06  1.9071e-04  1:28:28 9919
    82  4.7097e-02  7.4788e-08  1.3458e-08  1.7231e-07  1.6106e-06  1.7760e-04  1:28:24 9918
    83  4.5528e-02  7.3382e-08  1.3214e-08  1.6667e-07  1.5934e-06  1.6242e-04  1:28:24 9917
    84  4.3985e-02  7.1775e-08  1.2960e-08  1.6083e-07  1.5800e-06  1.4799e-04  1:28:43 9916
    85  4.2435e-02  7.0033e-08  1.2722e-08  1.5526e-07  1.5600e-06  1.3456e-04  1:28:42 9915
    86  4.0854e-02  6.8169e-08  1.2489e-08  1.4944e-07  1.5404e-06  1.2173e-04  1:40:00 9914
    87  3.9275e-02  6.6218e-08  1.2274e-08  1.4377e-07  1.5255e-06  1.0979e-04  1:37:33 9913
    88  3.7662e-02  6.4236e-08  1.2074e-08  1.3820e-07  1.5100e-06  9.8654e-05  1:35:48 9912

  iter  continuity  x-velocity  y-velocity      energy           k       omega     time/iter
    89  3.6047e-02  6.2223e-08  1.1874e-08  1.3283e-07  1.4909e-06  8.8054e-05  1:34:21 9911
    90  3.4385e-02  6.0247e-08  1.1682e-08  1.2768e-07  1.4717e-06  7.9522e-05  1:33:17 9910
    91  3.2797e-02  5.8289e-08  1.1502e-08  1.2310e-07  1.4514e-06  7.0226e-05  1:32:04 9909
    92  3.1128e-02  5.6355e-08  1.1319e-08  1.1884e-07  1.4373e-06  6.2589e-05  1:31:26 9908
    93  2.9470e-02  5.4462e-08  1.1143e-08  1.1531e-07  1.4095e-06  5.4946e-05  1:29:51 9907
    94  2.7869e-02  5.2617e-08  1.0963e-08  1.1199e-07  1.3878e-06  4.8343e-05  1:28:46 9906
    95  2.6254e-02  5.0874e-08  1.0811e-08  1.0915e-07  1.3651e-06  4.2452e-05  1:27:44 9905
    96  2.4714e-02  4.9201e-08  1.0624e-08  1.0648e-07  1.3416e-06  3.7206e-05  1:27:02 9904
    97  2.3117e-02  4.7587e-08  1.0441e-08  1.0405e-07  1.3167e-06  3.2278e-05  1:25:38 9903
    98  2.1506e-02  4.6000e-08  1.0262e-08  1.0152e-07  1.2945e-06  2.7843e-05  1:24:40 9902
    99  1.9919e-02  4.4456e-08  1.0061e-08  9.9202e-08  1.2720e-06  2.3952e-05  1:23:51 9901

  iter  continuity  x-velocity  y-velocity      energy           k       omega     time/iter
   100  1.8371e-02  4.2963e-08  9.8479e-09  9.7113e-08  1.2510e-06  2.0378e-05  1:23:14 9900
   101  1.6822e-02  4.1509e-08  9.6129e-09  9.5185e-08  1.2299e-06  2.0064e-05  1:22:29 9899
   102  1.5427e-02  4.0079e-08  9.3685e-09  9.3396e-08  1.2119e-06  2.2342e-05  1:21:52 9898
   103  1.4225e-02  3.8695e-08  9.1477e-09  9.1662e-08  1.1974e-06  2.4645e-05  1:21:28 9897
   104  1.3179e-02  3.7369e-08  8.9245e-09  9.0043e-08  1.1849e-06  2.6840e-05  1:20:57 9896
   105  1.2204e-02  3.6074e-08  8.7043e-09  8.8538e-08  1.1735e-06  2.8882e-05  1:21:00 9895
   106  1.1350e-02  3.4843e-08  8.5048e-09  8.7297e-08  1.1669e-06  3.0772e-05  1:21:45 9894
   107  1.0563e-02  3.3622e-08  8.3031e-09  8.6090e-08  1.1572e-06  3.2515e-05  1:22:21 9893
   108  9.8664e-03  3.2418e-08  8.1077e-09  8.4752e-08  1.1476e-06  3.4188e-05  1:22:46 9892
   109  9.2484e-03  3.1242e-08  7.9322e-09  8.3368e-08  1.1357e-06  3.5424e-05  1:23:07 9891
   110  8.6774e-03  3.0096e-08  7.7701e-09  8.1900e-08  1.1260e-06  3.6759e-05  1:23:31 9890

  iter  continuity  x-velocity  y-velocity      energy           k       omega     time/iter
   111  8.1611e-03  2.8992e-08  7.6201e-09  8.0478e-08  1.1154e-06  3.8015e-05  1:23:41 9889
   112  7.7060e-03  2.7914e-08  7.4763e-09  7.8990e-08  1.1051e-06  3.9258e-05  1:23:47 9888
   113  7.2859e-03  2.6865e-08  7.3504e-09  7.7585e-08  1.0941e-06  3.9965e-05  1:23:54 9887
   114  6.9061e-03  2.5839e-08  7.2248e-09  7.6227e-08  1.0820e-06  4.1274e-05  1:24:06 9886
   115  6.5414e-03  2.4819e-08  7.1010e-09  7.4825e-08  1.0697e-06  4.1963e-05  1:24:11 9885
   116  6.2127e-03  2.3827e-08  6.9873e-09  7.3405e-08  1.0571e-06  4.2611e-05  1:24:30 9884
   117  5.9040e-03  2.2865e-08  6.8713e-09  7.1920e-08  1.0444e-06  4.3061e-05  1:24:28 9883
   118  5.6153e-03  2.1950e-08  6.7669e-09  7.0368e-08  1.0324e-06  4.3321e-05  1:24:38 9882
   119  5.3645e-03  2.1071e-08  6.6588e-09  6.8872e-08  1.0191e-06  4.3747e-05  1:25:17 9881
   120  5.2193e-03  2.0224e-08  6.5517e-09  6.7264e-08  1.0049e-06  4.3869e-05  1:25:37 9880
   121  5.1917e-03  1.9453e-08  6.4344e-09  6.5666e-08  9.9050e-07  4.3838e-05  1:25:28 9879

  iter  continuity  x-velocity  y-velocity      energy           k       omega     time/iter
   122  5.2147e-03  1.8745e-08  6.3209e-09  6.4033e-08  9.7675e-07  4.3640e-05  1:25:35 9878
   123  5.2484e-03  1.8108e-08  6.2046e-09  6.2400e-08  9.6196e-07  4.3388e-05  1:25:38 9877
   124  5.2827e-03  1.7559e-08  6.0879e-09  6.0763e-08  9.4643e-07  4.3046e-05  1:25:22 9876
   125  5.3071e-03  1.7155e-08  5.9709e-09  5.9141e-08  9.3117e-07  4.2490e-05  1:25:22 9875
   126  5.3128e-03  1.6830e-08  5.8602e-09  5.7485e-08  9.1447e-07  4.1628e-05  1:25:18 9874
   127  5.2983e-03  1.6567e-08  5.7570e-09  5.5842e-08  8.9774e-07  4.0889e-05  1:25:18 9873
   128  5.2619e-03  1.6352e-08  5.6652e-09  5.4290e-08  8.8004e-07  3.9594e-05  1:25:05 9872
   129  5.2026e-03  1.6178e-08  5.5959e-09  5.2791e-08  8.6096e-07  3.8478e-05  1:25:16 9871
   130  5.1145e-03  1.6038e-08  5.5369e-09  5.1330e-08  8.4320e-07  3.7430e-05  1:25:10 9870
   131  5.0035e-03  1.5921e-08  5.4887e-09  4.9929e-08  8.2448e-07  3.5969e-05  1:25:22 9869
   132  4.8780e-03  1.5825e-08  5.4564e-09  4.8651e-08  8.0341e-07  3.4818e-05  1:25:33 9868

  iter  continuity  x-velocity  y-velocity      energy           k       omega     time/iter
   133  4.7387e-03  1.5725e-08  5.4245e-09  4.7415e-08  7.7988e-07  3.3369e-05  1:25:36 9867
   134  4.5855e-03  1.5640e-08  5.4011e-09  4.6218e-08  7.5938e-07  3.1847e-05  1:25:28 9866
   135  4.4251e-03  1.5549e-08  5.3842e-09  4.5135e-08  7.3774e-07  3.0204e-05  1:25:48 9865
   136  4.2561e-03  1.5447e-08  5.3562e-09  4.4167e-08  7.1495e-07  2.8638e-05  1:25:56 9864
   137  4.0752e-03  1.5333e-08  5.3198e-09  4.3192e-08  6.9162e-07  2.7071e-05  1:25:49 9863
   138  3.8891e-03  1.5211e-08  5.2749e-09  4.2284e-08  6.6934e-07  2.5508e-05  1:25:52 9862
   139  3.6964e-03  1.5076e-08  5.2371e-09  4.1405e-08  6.4642e-07  2.3955e-05  1:26:07 9861
   140  3.4979e-03  1.4925e-08  5.1846e-09  4.0614e-08  6.2392e-07  2.2432e-05  1:26:08 9860
   141  3.2952e-03  1.4762e-08  5.1284e-09  3.9835e-08  6.0165e-07  2.0891e-05  1:26:32 9859
   142  3.0906e-03  1.4578e-08  5.0639e-09  3.9059e-08  5.8059e-07  1.9317e-05  1:26:28 9858
   143  2.8895e-03  1.4392e-08  4.9995e-09  3.8353e-08  5.5820e-07  1.7977e-05  1:26:26 9857

  iter  continuity  x-velocity  y-velocity      energy           k       omega     time/iter
   144  2.6871e-03  1.4197e-08  4.9353e-09  3.7643e-08  5.3683e-07  1.6547e-05  1:26:14 9856
   145  2.4841e-03  1.3992e-08  4.8748e-09  3.6949e-08  5.1688e-07  1.5190e-05  1:26:30 9855
   146  2.2880e-03  1.3766e-08  4.8014e-09  3.6287e-08  4.9630e-07  1.3934e-05  1:26:30 9854
   147  2.0933e-03  1.3530e-08  4.7260e-09  3.5639e-08  4.7655e-07  1.3797e-05  1:26:47 9853
   148  2.0086e-03  1.3278e-08  4.6481e-09  3.5017e-08  4.5774e-07  1.4483e-05  1:26:46 9852
   149  2.0106e-03  1.3018e-08  4.5787e-09  3.4438e-08  4.3951e-07  1.5394e-05  1:26:53 9851
   150  2.0591e-03  1.2746e-08  4.5032e-09  3.3871e-08  4.2244e-07  1.6348e-05  1:27:04 9850
   151  2.1178e-03  1.2466e-08  4.4241e-09  3.3335e-08  4.0566e-07  1.7255e-05  1:27:02 9849
   152  2.1713e-03  1.2179e-08  4.3505e-09  3.2811e-08  3.8946e-07  1.8130e-05  1:27:19 9848
   153  2.2264e-03  1.1888e-08  4.2758e-09  3.2306e-08  3.7426e-07  1.8953e-05  1:27:13 9847
   154  2.2699e-03  1.1597e-08  4.2043e-09  3.1856e-08  3.6002e-07  1.9589e-05  1:27:21 9846

  iter  continuity  x-velocity  y-velocity      energy           k       omega     time/iter
   155  2.3125e-03  1.1305e-08  4.1343e-09  3.1431e-08  3.4665e-07  2.0279e-05  1:27:30 9845
   156  2.3461e-03  1.1014e-08  4.0646e-09  3.1013e-08  3.3363e-07  2.0903e-05  1:27:35 9844
   157  2.3738e-03  1.0729e-08  3.9931e-09  3.0599e-08  3.2123e-07  2.1463e-05  1:27:46 9843
   158  2.3970e-03  1.0443e-08  3.9214e-09  3.0196e-08  3.0948e-07  2.1924e-05  1:27:55 9842
   159  2.4095e-03  1.0170e-08  3.8499e-09  2.9827e-08  2.9803e-07  2.2211e-05  1:27:57 9841
   160  2.4185e-03  9.9052e-09  3.7781e-09  2.9446e-08  2.8735e-07  2.2745e-05  1:33:18 9840
   161  2.4190e-03  9.6490e-09  3.7091e-09  2.9094e-08  2.7753e-07  2.2825e-05  1:32:19 9839
   162  2.4095e-03  9.4084e-09  3.6365e-09  2.8775e-08  2.6783e-07  2.3065e-05  1:31:18 9838
   163  2.3942e-03  9.1904e-09  3.5656e-09  2.8451e-08  2.5841e-07  2.3256e-05  1:30:46 9837
   164  2.3712e-03  8.9807e-09  3.4936e-09  2.8129e-08  2.4970e-07  2.3401e-05  1:30:05 9836
   165  2.3391e-03  8.7878e-09  3.4256e-09  2.7837e-08  2.4124e-07  2.3414e-05  1:30:02 9835

  iter  continuity  x-velocity  y-velocity      energy           k       omega     time/iter
   166  2.2987e-03  8.6131e-09  3.3588e-09  2.7537e-08  2.3316e-07  2.3354e-05  1:29:32 9834
   167  2.2525e-03  8.4386e-09  3.2935e-09  2.7272e-08  2.2582e-07  2.3300e-05  1:29:15 9833
   168  2.1988e-03  8.2758e-09  3.2307e-09  2.7028e-08  2.1883e-07  2.3200e-05  1:28:59 9832
   169  2.1397e-03  8.1161e-09  3.1682e-09  2.6835e-08  2.1225e-07  2.2835e-05  1:28:48 9831
   170  2.0754e-03  7.9652e-09  3.1102e-09  2.6619e-08  2.0567e-07  2.2844e-05  1:28:44 9830
   171  2.0070e-03  7.8196e-09  3.0546e-09  2.6422e-08  1.9929e-07  2.2580e-05  1:28:44 9829
   172  1.9332e-03  7.6856e-09  2.9989e-09  2.6253e-08  1.9325e-07  2.2066e-05  1:28:30 9828
   173  1.8569e-03  7.5545e-09  2.9432e-09  2.6084e-08  1.8762e-07  2.1781e-05  1:28:24 9827
   174  1.7779e-03  7.4307e-09  2.8901e-09  2.5952e-08  1.8209e-07  2.1498e-05  1:28:37 9826
   175  1.7005e-03  7.3140e-09  2.8385e-09  2.5797e-08  1.7676e-07  2.1155e-05  1:28:27 9825
   176  1.6261e-03  7.2002e-09  2.7887e-09  2.5681e-08  1.7180e-07  2.0731e-05  1:28:37 9824

  iter  continuity  x-velocity  y-velocity      energy           k       omega     time/iter
   177  1.5569e-03  7.0927e-09  2.7415e-09  2.5548e-08  1.6669e-07  2.0326e-05  1:28:31 9823
   178  1.4940e-03  6.9923e-09  2.6921e-09  2.5424e-08  1.6228e-07  1.9866e-05  1:29:03 9822
   179  1.4385e-03  6.8968e-09  2.6486e-09  2.5267e-08  1.5658e-07  1.9442e-05  1:28:43 9821
   180  1.3898e-03  6.8236e-09  2.6110e-09  2.5131e-08  1.5243e-07  1.8836e-05  1:28:38 9820
   181  1.3534e-03  6.7350e-09  2.5760e-09  2.5013e-08  1.4901e-07  1.8405e-05  1:28:21 9819
   182  1.3243e-03  6.6501e-09  2.5440e-09  2.4928e-08  1.4573e-07  1.7969e-05  1:28:27 9818
   183  1.2953e-03  6.5709e-09  2.5151e-09  2.4798e-08  1.4219e-07  1.7719e-05  1:28:26 9817
   184  1.2648e-03  6.4981e-09  2.4897e-09  2.4702e-08  1.3923e-07  1.7015e-05  1:28:25 9816
   185  1.2330e-03  6.4235e-09  2.4667e-09  2.4578e-08  1.3728e-07  1.6568e-05  1:28:13 9815
   186  1.1998e-03  6.3384e-09  2.4448e-09  2.4508e-08  1.3514e-07  1.6159e-05  1:28:11 9814
   187  1.1641e-03  6.2559e-09  2.4201e-09  2.4411e-08  1.3293e-07  1.5720e-05  1:28:15 9813

  iter  continuity  x-velocity  y-velocity      energy           k       omega     time/iter
   188  1.1265e-03  6.1789e-09  2.3984e-09  2.4304e-08  1.3247e-07  1.5284e-05  1:27:50 9812
   189  1.0877e-03  6.0839e-09  2.3726e-09  2.4201e-08  1.3068e-07  1.4881e-05  1:27:59 9811
   190  1.0482e-03  6.0014e-09  2.3491e-09  2.4094e-08  1.3071e-07  1.4494e-05  1:28:07 9810
   191  1.0082e-03  5.9078e-09  2.3193e-09  2.4023e-08  1.3036e-07  1.4126e-05  1:28:29 9809
   192  9.6891e-04  5.8160e-09  2.2911e-09  2.3938e-08  1.3050e-07  1.3757e-05  1:28:33 9808
   193  9.2839e-04  5.7155e-09  2.2635e-09  2.3862e-08  1.3023e-07  1.3450e-05  1:29:01 9807
   194  8.8626e-04  5.6180e-09  2.2365e-09  2.3765e-08  1.2985e-07  1.3162e-05  1:29:14 9806
   195  8.4456e-04  5.5191e-09  2.2076e-09  2.3662e-08  1.2895e-07  1.2870e-05  1:29:35 9805
   196  8.0332e-04  5.4232e-09  2.1801e-09  2.3548e-08  1.2819e-07  1.2620e-05  1:29:34 9804
   197  7.6314e-04  5.3231e-09  2.1522e-09  2.3469e-08  1.2765e-07  1.2372e-05  1:30:00 9803
   198  7.2374e-04  5.2222e-09  2.1228e-09  2.3402e-08  1.2696e-07  1.2252e-05  1:30:13 9802

  iter  continuity  x-velocity  y-velocity      energy           k       omega     time/iter
   199  6.8830e-04  5.1241e-09  2.0921e-09  2.3320e-08  1.2588e-07  1.2326e-05  1:30:02 9801
   200  6.6332e-04  5.0287e-09  2.0630e-09  2.3237e-08  1.2507e-07  1.2465e-05  1:30:07 9800
   201  6.4179e-04  4.9295e-09  2.0326e-09  2.3190e-08  1.2414e-07  1.2585e-05  1:30:04 9799
   202  6.2164e-04  4.8357e-09  2.0039e-09  2.3117e-08  1.2306e-07  1.2686e-05  1:30:21 9798
   203  6.0003e-04  4.7404e-09  1.9729e-09  2.3051e-08  1.2141e-07  1.2732e-05  1:30:07 9797
   204  5.7846e-04  4.6511e-09  1.9403e-09  2.2962e-08  1.1994e-07  1.2814e-05  1:30:25 9796
   205  5.5584e-04  4.5652e-09  1.9104e-09  2.2877e-08  1.1833e-07  1.2848e-05  1:30:25 9795
   206  5.3350e-04  4.4813e-09  1.8823e-09  2.2805e-08  1.1650e-07  1.2840e-05  1:30:36 9794
   207  5.1209e-04  4.4074e-09  1.8566e-09  2.2726e-08  1.1494e-07  1.2863e-05  1:30:48 9793
   208  4.9015e-04  4.3255e-09  1.8265e-09  2.2650e-08  1.1320e-07  1.2858e-05  1:30:44 9792
   209  4.6772e-04  4.2453e-09  1.7950e-09  2.2591e-08  1.1151e-07  1.2817e-05  1:30:54 9791

  iter  continuity  x-velocity  y-velocity      energy           k       omega     time/iter
   210  4.4501e-04  4.1699e-09  1.7644e-09  2.2512e-08  1.1013e-07  1.2793e-05  1:31:03 9790
   211  4.2165e-04  4.0964e-09  1.7360e-09  2.2461e-08  1.0834e-07  1.2746e-05  1:31:22 9789
   212  3.9830e-04  4.0257e-09  1.7091e-09  2.2394e-08  1.0650e-07  1.2684e-05  1:31:24 9788
   213  3.7551e-04  3.9579e-09  1.6847e-09  2.2324e-08  1.0491e-07  1.2613e-05  1:30:25 9787
   214  3.5376e-04  3.8913e-09  1.6584e-09  2.2258e-08  1.0378e-07  1.2543e-05  1:29:27 9786
   215  3.3160e-04  3.8290e-09  1.6351e-09  2.2175e-08  1.0257e-07  1.2462e-05  1:29:26 9785
   216  3.1153e-04  3.7665e-09  1.6124e-09  2.2107e-08  1.0081e-07  1.2360e-05  1:29:01 9784
   217  2.9353e-04  3.7070e-09  1.5894e-09  2.2024e-08  9.8877e-08  1.2284e-05  1:28:42 9783
   218  2.7814e-04  3.6519e-09  1.5669e-09  2.1941e-08  9.7135e-08  1.2167e-05  1:28:15 9782
   219  2.6644e-04  3.5935e-09  1.5453e-09  2.1875e-08  9.5376e-08  1.2091e-05  1:28:43 9781
   220  2.6156e-04  3.5368e-09  1.5244e-09  2.1797e-08  9.3337e-08  1.2108e-05  1:29:17 9780

  iter  continuity  x-velocity  y-velocity      energy           k       omega     time/iter
   221  2.6599e-04  3.4805e-09  1.5040e-09  2.1726e-08  9.1641e-08  1.2152e-05  1:29:07 9779
   222  2.7371e-04  3.4220e-09  1.4839e-09  2.1663e-08  8.9880e-08  1.2236e-05  1:29:07 9778
   223  2.8399e-04  3.3646e-09  1.4623e-09  2.1601e-08  8.8136e-08  1.2336e-05  1:28:44 9777
   224  2.9498e-04  3.3082e-09  1.4440e-09  2.1534e-08  8.6457e-08  1.2415e-05  1:28:42 9776
   225  3.0539e-04  3.2512e-09  1.4257e-09  2.1469e-08  8.4821e-08  1.2522e-05  1:28:23 9775
   226  3.1488e-04  3.1960e-09  1.4086e-09  2.1412e-08  8.3121e-08  1.2593e-05  1:28:22 9774
   227  3.2322e-04  3.1414e-09  1.3904e-09  2.1344e-08  8.1541e-08  1.2701e-05  1:28:06 9773
   228  3.3076e-04  3.0879e-09  1.3743e-09  2.1296e-08  8.0176e-08  1.2745e-05  1:28:00 9772
   229  3.3810e-04  3.0310e-09  1.3567e-09  2.1254e-08  7.9007e-08  1.2823e-05  1:27:49 9771
   230  3.4541e-04  2.9741e-09  1.3396e-09  2.1211e-08  7.7692e-08  1.2902e-05  1:28:23 9770
   231  3.5155e-04  2.9206e-09  1.3223e-09  2.1170e-08  7.6198e-08  1.2973e-05  1:28:35 9769

  iter  continuity  x-velocity  y-velocity      energy           k       omega     time/iter
   232  3.5796e-04  2.8668e-09  1.3064e-09  2.1132e-08  7.4739e-08  1.3038e-05  1:28:45 9768
   233  3.6282e-04  2.8145e-09  1.2907e-09  2.1082e-08  7.3416e-08  1.3099e-05  1:29:27 9767
   234  3.6680e-04  2.7622e-09  1.2743e-09  2.1042e-08  7.2117e-08  1.3153e-05  1:29:24 9766
   235  3.6998e-04  2.7137e-09  1.2597e-09  2.0994e-08  7.0907e-08  1.3202e-05  1:29:37 9765
   236  3.7196e-04  2.6642e-09  1.2421e-09  2.0951e-08  6.9867e-08  1.3250e-05  1:29:35 9764
   237  3.7257e-04  2.6146e-09  1.2254e-09  2.0893e-08  6.8695e-08  1.3289e-05  1:29:41 9763
   238  3.7264e-04  2.5684e-09  1.2095e-09  2.0840e-08  6.7721e-08  1.3314e-05  1:29:39 9762
   239  3.7207e-04  2.5217e-09  1.1947e-09  2.0788e-08  6.6805e-08  1.3335e-05  1:29:46 9761
   240  3.7146e-04  2.4752e-09  1.1782e-09  2.0753e-08  6.5791e-08  1.3349e-05  1:29:41 9760
   241  3.6969e-04  2.4315e-09  1.1621e-09  2.0711e-08  6.4935e-08  1.3360e-05  1:29:51 9759
   242  3.6772e-04  2.3890e-09  1.1485e-09  2.0665e-08  6.3998e-08  1.3371e-05  1:29:59 9758

  iter  continuity  x-velocity  y-velocity      energy           k       omega     time/iter
   243  3.6496e-04  2.3491e-09  1.1352e-09  2.0621e-08  6.3105e-08  1.3373e-05  1:29:52 9757
   244  3.6148e-04  2.3087e-09  1.1202e-09  2.0586e-08  6.2104e-08  1.3370e-05  1:29:58 9756
   245  3.5711e-04  2.2708e-09  1.1053e-09  2.0547e-08  6.1400e-08  1.3362e-05  1:29:57 9755
   246  3.5283e-04  2.2323e-09  1.0940e-09  2.0505e-08  6.0676e-08  1.3351e-05  1:30:01 9754
   247  3.4765e-04  2.1969e-09  1.0817e-09  2.0466e-08  6.0020e-08  1.3337e-05  1:29:46 9753
   248  3.4192e-04  2.1628e-09  1.0695e-09  2.0450e-08  5.9399e-08  1.3198e-05  1:29:53 9752
   249  3.3576e-04  2.1276e-09  1.0539e-09  2.0409e-08  5.8576e-08  1.3314e-05  1:29:45 9751

>> Dividing domain into 40 partitions using Metis.
   Time = 0.046181 seconds.
   Done.

>> 40 Stored Partitions:
   ----------------------------------------------------------------------
   Collective Partition Statistics:        Minimum   Maximum   Total     
   ----------------------------------------------------------------------
   Cell count                              14305     14377     573212    
   Mean cell count deviation               -0.2%     0.3%      
   Partition boundary cell count           99        583       16381     
   Partition boundary cell count ratio     0.7%      4.1%      2.9%      

   Face count                              28934     29596     1155432   
   Mean face count deviation               -0.7%     1.6%      
   Partition boundary face count           132       726       10190     
   Partition boundary face count ratio     0.4%      2.5%      0.9%      

   Cell weights                            1e+05     1e+05     5e+06     
   Mean cell weight deviation              -14.5%    5.8%      

   Partition neighbor count                1         8         
   ----------------------------------------------------------------------
   Partition Method                        Metis                                
   Stored Partition Count                  40                                   
Done.

Adapting mesh...
done.
   250  9.3033e-03  6.4320e-08  1.2423e-08  7.7251e-08  2.4875e-07  1.4791e-01  1:46:04 9750
   251  4.7238e-03  3.2745e-08  6.4148e-09  3.8603e-08  2.3248e-07  2.6829e-02  1:36:24 9749
   252  2.8643e-03  1.8031e-08  3.8587e-09  2.7788e-08  1.4866e-07  6.4285e-03  1:28:34 9748
   253  1.9933e-03  1.0657e-08  2.6992e-09  2.4009e-08  1.1743e-07  1.7872e-03  1:22:17 9747

  iter  continuity  x-velocity  y-velocity      energy           k       omega     time/iter
   254  1.6779e-03  6.8264e-09  2.0919e-09  2.2866e-08  9.9003e-08  9.2679e-04  1:23:11 9746
   255  1.4611e-03  4.7851e-09  1.7297e-09  2.2307e-08  8.3607e-08  5.0212e-04  1:19:46 9745
   256  1.2861e-03  3.6580e-09  1.5422e-09  2.1897e-08  7.9403e-08  2.6724e-04  1:20:46 9744
   257  1.1294e-03  3.0326e-09  1.4325e-09  2.1589e-08  7.7117e-08  1.5946e-04  1:21:35 9743
   258  9.9821e-04  2.6694e-09  1.3674e-09  2.1340e-08  7.5355e-08  1.6712e-04  1:22:22 9742
   259  8.9457e-04  2.4482e-09  1.3190e-09  2.1199e-08  7.4328e-08  1.8334e-04  1:22:44 9741
   260  8.0741e-04  2.3104e-09  1.2790e-09  2.1174e-08  7.3285e-08  1.7679e-04  1:22:59 9740
   261  7.3474e-04  2.2289e-09  1.2455e-09  2.1166e-08  7.2197e-08  1.9475e-04  1:23:23 9739
   262  6.7306e-04  2.1827e-09  1.2181e-09  2.1186e-08  7.1409e-08  2.3494e-04  1:23:30 9738
   263  6.2244e-04  2.1517e-09  1.1840e-09  2.1246e-08  6.8918e-08  2.6758e-04  1:23:46 9737
   264  5.8264e-04  2.1345e-09  1.1607e-09  2.1325e-08  6.7217e-08  3.0531e-04  1:23:48 9736

  iter  continuity  x-velocity  y-velocity      energy           k       omega     time/iter
   265  5.4989e-04  2.1207e-09  1.1404e-09  2.1389e-08  6.5075e-08  3.3717e-04  1:24:00 9735
   266  5.2423e-04  2.1092e-09  1.1239e-09  2.1458e-08  6.2635e-08  3.6573e-04  1:24:07 9734
   267  5.0263e-04  2.0983e-09  1.1108e-09  2.1476e-08  6.0434e-08  4.3454e-04  1:24:26 9733
   268  4.8404e-04  2.0850e-09  1.0998e-09  2.1480e-08  5.8210e-08  4.4096e-04  1:24:30 9732
   269  4.6744e-04  2.0727e-09  1.0909e-09  2.1452e-08  5.6168e-08  4.2729e-04  1:24:40 9731
   270  4.5196e-04  2.0605e-09  1.0847e-09  2.1391e-08  5.4175e-08  4.2752e-04  1:24:54 9730
   271  4.3636e-04  2.0480e-09  1.0801e-09  2.1296e-08  5.2700e-08  4.1800e-04  1:29:07 9729
   272  4.2170e-04  2.0366e-09  1.0744e-09  2.1160e-08  5.1303e-08  4.0983e-04  1:28:44 9728
   273  4.0799e-04  2.0208e-09  1.0689e-09  2.1051e-08  5.0021e-08  3.9313e-04  1:28:38 9727
   274  3.9420e-04  2.0066e-09  1.0612e-09  2.0915e-08  4.9182e-08  3.8191e-04  1:28:18 9726
   275  3.8048e-04  1.9913e-09  1.0534e-09  2.0781e-08  4.8606e-08  3.6799e-04  1:28:06 9725

  iter  continuity  x-velocity  y-velocity      energy           k       omega     time/iter
   276  3.6635e-04  1.9776e-09  1.0443e-09  2.0641e-08  4.8166e-08  3.4645e-04  1:39:03 9724
   277  3.5218e-04  1.9610e-09  1.0328e-09  2.0508e-08  4.7974e-08  3.2597e-04  1:36:51 9723
   278  3.3830e-04  1.9479e-09  1.0206e-09  2.0340e-08  4.8100e-08  3.0730e-04  1:35:20 9722
   279  3.2392e-04  1.9385e-09  1.0088e-09  2.0216e-08  4.8135e-08  2.8304e-04  1:34:00 9721
   280  3.0958e-04  1.9253e-09  9.9384e-10  2.0108e-08  4.8422e-08  2.6402e-04  1:33:12 9720
   281  2.9491e-04  1.9145e-09  9.7933e-10  1.9955e-08  4.8681e-08  2.4559e-04  1:32:25 9719
   282  2.8046e-04  1.9014e-09  9.6437e-10  1.9864e-08  4.9008e-08  2.2207e-04  1:31:46 9718
   283  2.6631e-04  1.8870e-09  9.4895e-10  1.9741e-08  4.9447e-08  2.0319e-04  1:31:30 9717
   284  2.5253e-04  1.8746e-09  9.3473e-10  1.9638e-08  4.9860e-08  1.8287e-04  1:31:07 9716
   285  2.3870e-04  1.8594e-09  9.2118e-10  1.9560e-08  5.0378e-08  1.6338e-04  1:30:38 9715
   286  2.2564e-04  1.8430e-09  9.0756e-10  1.9488e-08  5.0923e-08  1.4613e-04  1:30:03 9714

  iter  continuity  x-velocity  y-velocity      energy           k       omega     time/iter
   287  2.1497e-04  1.8253e-09  8.9305e-10  1.9425e-08  5.1493e-08  1.2969e-04  1:29:42 9713
   288  2.0623e-04  1.8079e-09  8.8112e-10  1.9369e-08  5.2019e-08  1.1390e-04  1:29:53 9712
   289  1.9907e-04  1.7906e-09  8.7122e-10  1.9312e-08  5.2483e-08  1.0023e-04  1:29:35 9711
   290  1.9371e-04  1.7735e-09  8.6228e-10  1.9245e-08  5.2990e-08  8.7123e-05  1:29:29 9710
   291  1.9074e-04  1.7548e-09  8.5435e-10  1.9200e-08  5.3183e-08  7.5421e-05  1:29:16 9709
   292  1.9072e-04  1.7336e-09  8.4699e-10  1.9144e-08  5.3567e-08  6.5223e-05  1:29:26 9708
   293  1.9332e-04  1.7140e-09  8.4151e-10  1.9093e-08  5.3801e-08  5.5855e-05  1:29:12 9707
   294  1.9709e-04  1.6948e-09  8.3584e-10  1.9028e-08  5.4149e-08  4.7719e-05  1:29:01 9706
   295  2.0110e-04  1.6774e-09  8.3084e-10  1.8973e-08  5.4459e-08  4.0982e-05  1:29:01 9705
   296  2.0512e-04  1.6624e-09  8.2523e-10  1.8925e-08  5.4516e-08  3.5085e-05  1:28:53 9704
   297  2.0916e-04  1.6504e-09  8.1941e-10  1.8874e-08  5.4619e-08  3.0019e-05  1:28:54 9703

  iter  continuity  x-velocity  y-velocity      energy           k       omega     time/iter
   298  2.1317e-04  1.6402e-09  8.1347e-10  1.8821e-08  5.4505e-08  2.5803e-05  1:29:18 9702
   299  2.1674e-04  1.6314e-09  8.0768e-10  1.8775e-08  5.4272e-08  2.2728e-05  1:29:15 9701
   300  2.1924e-04  1.6246e-09  8.0199e-10  1.8735e-08  5.3973e-08  1.9091e-05  1:29:18 9700
   301  2.2072e-04  1.6168e-09  7.9580e-10  1.8697e-08  5.3798e-08  1.6263e-05  1:29:27 9699
   302  2.2118e-04  1.6107e-09  7.8962e-10  1.8647e-08  5.3551e-08  1.3973e-05  1:29:22 9698
   303  2.2068e-04  1.6044e-09  7.8348e-10  1.8598e-08  5.3342e-08  1.2131e-05  1:29:31 9697
   304  2.1903e-04  1.5984e-09  7.7802e-10  1.8551e-08  5.3098e-08  1.0734e-05  1:29:06 9696
   305  2.1655e-04  1.5927e-09  7.7120e-10  1.8502e-08  5.2978e-08  9.7666e-06  1:29:14 9695
   306  2.1337e-04  1.5873e-09  7.6519e-10  1.8448e-08  5.2787e-08  9.2820e-06  1:29:35 9694
   307  2.0946e-04  1.5815e-09  7.5893e-10  1.8400e-08  5.2689e-08  8.8399e-06  1:29:23 9693
   308  2.0519e-04  1.5767e-09  7.5315e-10  1.8350e-08  5.2538e-08  8.5102e-06  1:29:18 9692

  iter  continuity  x-velocity  y-velocity      energy           k       omega     time/iter
   309  1.9972e-04  1.5707e-09  7.4697e-10  1.8300e-08  5.2366e-08  8.3441e-06  1:29:21 9691
   310  1.9416e-04  1.5647e-09  7.4102e-10  1.8252e-08  5.2095e-08  8.2125e-06  1:29:07 9690
   311  1.8777e-04  1.5574e-09  7.3500e-10  1.8199e-08  5.1811e-08  8.5624e-06  1:28:56 9689
   312  1.8107e-04  1.5493e-09  7.2829e-10  1.8161e-08  5.1477e-08  8.3486e-06  1:29:07 9688
   313  1.7423e-04  1.5403e-09  7.2163e-10  1.8111e-08  5.1191e-08  8.3326e-06  1:28:56 9687
   314  1.6708e-04  1.5323e-09  7.1518e-10  1.8071e-08  5.0753e-08  8.2094e-06  1:29:06 9686
   315  1.6029e-04  1.5218e-09  7.0882e-10  1.8017e-08  5.0085e-08  8.3112e-06  1:28:55 9685
   316  1.5310e-04  1.5090e-09  7.0143e-10  1.7981e-08  4.9484e-08  8.1273e-06  1:28:33 9684
   317  1.4646e-04  1.4968e-09  6.9318e-10  1.7941e-08  4.8813e-08  8.2323e-06  1:28:35 9683
   318  1.4043e-04  1.4837e-09  6.8459e-10  1.7886e-08  4.8187e-08  8.2262e-06  1:28:42 9682
   319  1.3464e-04  1.4709e-09  6.7742e-10  1.7845e-08  4.7550e-08  7.9351e-06  1:28:19 9681

  iter  continuity  x-velocity  y-velocity      energy           k       omega     time/iter
   320  1.2963e-04  1.4577e-09  6.7010e-10  1.7799e-08  4.6901e-08  8.0305e-06  1:28:32 9680
   321  1.2480e-04  1.4437e-09  6.6325e-10  1.7759e-08  4.6321e-08  7.8210e-06  1:28:23 9679
   322  1.1974e-04  1.4303e-09  6.5626e-10  1.7716e-08  4.5609e-08  7.6979e-06  1:28:13 9678
   323  1.1495e-04  1.4146e-09  6.4904e-10  1.7669e-08  4.4945e-08  7.6220e-06  1:28:04 9677
   324  1.1073e-04  1.3987e-09  6.4166e-10  1.7623e-08  4.4274e-08  7.4903e-06  1:28:21 9676
   325  1.0760e-04  1.3824e-09  6.3417e-10  1.7580e-08  4.3616e-08  7.3760e-06  1:28:12 9675
   326  1.0546e-04  1.3663e-09  6.2649e-10  1.7541e-08  4.3008e-08  7.3040e-06  1:27:51 9674
   327  1.0482e-04  1.3512e-09  6.1963e-10  1.7495e-08  4.2415e-08  7.2134e-06  1:28:03 9673
   328  1.0625e-04  1.3361e-09  6.1283e-10  1.7451e-08  4.1720e-08  7.1758e-06  1:27:43 9672
   329  1.0865e-04  1.3190e-09  6.0579e-10  1.7409e-08  4.1168e-08  7.1369e-06  1:27:42 9671
   330  1.1088e-04  1.3037e-09  5.9906e-10  1.7369e-08  4.0544e-08  7.1382e-06  1:28:01 9670

  iter  continuity  x-velocity  y-velocity      energy           k       omega     time/iter
   331  1.1281e-04  1.2867e-09  5.9168e-10  1.7340e-08  4.0089e-08  7.1288e-06  1:28:51 9669
   332  1.1519e-04  1.2707e-09  5.8456e-10  1.7297e-08  3.9606e-08  7.1568e-06  1:28:17 9668
   333  1.1688e-04  1.2536e-09  5.7741e-10  1.7277e-08  3.9120e-08  7.2375e-06  1:28:22 9667
   334  1.1905e-04  1.2381e-09  5.7045e-10  1.7235e-08  3.8600e-08  7.1726e-06  1:27:53 9666
   335  1.2044e-04  1.2206e-09  5.6335e-10  1.7216e-08  3.8070e-08  7.1336e-06  1:27:48 9665
   336  1.2233e-04  1.2036e-09  5.5602e-10  1.7179e-08  3.7631e-08  7.2047e-06  1:27:33 9664
   337  1.2311e-04  1.1880e-09  5.4908e-10  1.7153e-08  3.7181e-08  7.1360e-06  1:27:40 9663
   338  1.2450e-04  1.1728e-09  5.4167e-10  1.7114e-08  3.6730e-08  7.1999e-06  1:27:28 9662
   339  1.2460e-04  1.1577e-09  5.3477e-10  1.7087e-08  3.6209e-08  7.1753e-06  1:27:24 9661
   340  1.2533e-04  1.1406e-09  5.2701e-10  1.7065e-08  3.5757e-08  7.2029e-06  1:27:29 9660
   341  1.2658e-04  1.1244e-09  5.1961e-10  1.7028e-08  3.5357e-08  7.3226e-06  1:27:09 9659

  iter  continuity  x-velocity  y-velocity      energy           k       omega     time/iter
   342  1.2642e-04  1.1096e-09  5.1320e-10  1.7007e-08  3.4884e-08  7.2371e-06  1:27:06 9658
   343  1.2689e-04  1.0937e-09  5.0548e-10  1.6982e-08  3.4467e-08  7.3003e-06  1:27:16 9657
   344  1.2751e-04  1.0784e-09  4.9762e-10  1.6933e-08  3.4052e-08  7.2796e-06  1:27:05 9656
   345  1.2809e-04  1.0627e-09  4.8996e-10  1.6911e-08  3.3667e-08  7.2440e-06  1:26:48 9655
   346  1.2890e-04  1.0474e-09  4.8293e-10  1.6889e-08  3.3338e-08  7.2314e-06  1:26:42 9654
   347  1.2989e-04  1.0332e-09  4.7612e-10  1.6861e-08  3.2942e-08  8.5013e-06  1:26:29 9653
   348  1.3099e-04  1.0177e-09  4.6878e-10  1.6837e-08  3.2625e-08  7.7329e-06  1:26:18 9652
   349  1.3212e-04  1.0039e-09  4.6202e-10  1.6813e-08  3.2284e-08  7.4132e-06  1:26:22 9651
   350  1.3317e-04  9.8946e-10  4.5480e-10  1.6792e-08  3.1944e-08  7.3255e-06  1:26:14 9650
   351  1.3413e-04  9.7499e-10  4.4750e-10  1.6769e-08  3.1626e-08  7.2628e-06  1:26:18 9649
   352  1.3492e-04  9.6094e-10  4.4038e-10  1.6753e-08  3.1324e-08  7.2064e-06  1:26:10 9648

  iter  continuity  x-velocity  y-velocity      energy           k       omega     time/iter
   353  1.3559e-04  9.4697e-10  4.3328e-10  1.6737e-08  3.1041e-08  1.1461e-05  1:26:14 9647
   354  1.3617e-04  9.3404e-10  4.2673e-10  1.6710e-08  3.0743e-08  8.5391e-06  1:26:06 9646
   355  1.3654e-04  9.2105e-10  4.2023e-10  1.6685e-08  3.0470e-08  7.5316e-06  1:26:11 9645
   356  1.3671e-04  9.0782e-10  4.1326e-10  1.6658e-08  3.0209e-08  7.2462e-06  1:25:50 9644
   357  1.3676e-04  8.9530e-10  4.0655e-10  1.6632e-08  2.9935e-08  3.2715e-05  1:25:59 9643
   358  1.3687e-04  8.8287e-10  4.0037e-10  1.6610e-08  2.9702e-08  1.3868e-05  1:25:36 9642
   359  1.3670e-04  8.7102e-10  3.9392e-10  1.6585e-08  2.9483e-08  8.8111e-06  1:25:47 9641
   360  1.3639e-04  8.5954e-10  3.8753e-10  1.6544e-08  2.9274e-08  7.5063e-06  1:25:25 9640
   361  1.3602e-04  8.4802e-10  3.8171e-10  1.6521e-08  2.9044e-08  7.1878e-06  1:26:03 9639
   362  1.3538e-04  8.3697e-10  3.7603e-10  1.6500e-08  2.8840e-08  7.1331e-06  1:25:39 9638
   363  1.3460e-04  8.2577e-10  3.7008e-10  1.6481e-08  2.8618e-08  8.2935e-06  1:25:49 9637

  iter  continuity  x-velocity  y-velocity      energy           k       omega     time/iter
   364  1.3366e-04  8.1503e-10  3.6436e-10  1.6461e-08  2.8437e-08  7.6086e-06  1:25:28 9636
   365  1.3260e-04  8.0455e-10  3.5876e-10  1.6439e-08  2.8184e-08  7.5850e-06  1:25:12 9635
   366  1.3138e-04  7.9430e-10  3.5321e-10  1.6414e-08  2.7976e-08  7.3795e-06  1:25:26 9634
   367  1.2999e-04  7.8428e-10  3.4772e-10  1.6395e-08  2.7770e-08  7.3497e-06  1:25:09 9633
   368  1.2835e-04  7.7445e-10  3.4238e-10  1.6375e-08  2.7558e-08  7.3266e-06  1:25:07 9632
   369  1.2644e-04  7.6492e-10  3.3763e-10  1.6355e-08  2.7336e-08  7.2949e-06  1:24:53 9631
   370  1.2444e-04  7.5550e-10  3.3297e-10  1.6333e-08  2.7126e-08  7.1765e-06  1:24:55 9630
   371  1.2235e-04  7.4633e-10  3.2865e-10  1.6312e-08  2.6942e-08  7.0812e-06  1:24:42 9629
   372  1.2029e-04  7.3779e-10  3.2429e-10  1.6287e-08  2.6711e-08  6.9840e-06  1:24:44 9628
   373  1.1817e-04  7.2892e-10  3.1974e-10  1.6265e-08  2.6489e-08  6.9591e-06  1:24:34 9627
   374  1.1604e-04  7.2029e-10  3.1539e-10  1.6243e-08  2.6254e-08  6.8748e-06  1:24:41 9626

  iter  continuity  x-velocity  y-velocity      energy           k       omega     time/iter
   375  1.1383e-04  7.1150e-10  3.1107e-10  1.6222e-08  2.6057e-08  6.8556e-06  1:24:35 9625
   376  1.1151e-04  7.0349e-10  3.0701e-10  1.6200e-08  2.5861e-08  6.8715e-06  1:24:35 9624
   377  1.0910e-04  6.9550e-10  3.0329e-10  1.6178e-08  2.5625e-08  6.8557e-06  1:24:28 9623
   378  1.0671e-04  6.8703e-10  2.9925e-10  1.6158e-08  2.5392e-08  6.8185e-06  1:24:35 9622
   379  1.0432e-04  6.7916e-10  2.9539e-10  1.6135e-08  2.5139e-08  6.8085e-06  1:24:28 9621
   380  1.0188e-04  6.7098e-10  2.9145e-10  1.6113e-08  2.4909e-08  6.7909e-06  1:26:52 9620
   381  9.9461e-05  6.6314e-10  2.8761e-10  1.6092e-08  2.4687e-08  6.7535e-06  1:28:11 9619
   382  9.7027e-05  6.5576e-10  2.8419e-10  1.6069e-08  2.4431e-08  6.7319e-06  1:27:33 9618
   383  9.4542e-05  6.4792e-10  2.8058e-10  1.6048e-08  2.4216e-08  6.7313e-06  1:27:02 9617
   384  9.2044e-05  6.4043e-10  2.7720e-10  1.6027e-08  2.3996e-08  6.7225e-06  1:26:24 9616
   385  8.9643e-05  6.3290e-10  2.7380e-10  1.6004e-08  2.3771e-08  6.7083e-06  1:26:06 9615

  iter  continuity  x-velocity  y-velocity      energy           k       omega     time/iter
   386  8.7219e-05  6.2584e-10  2.7043e-10  1.5981e-08  2.3547e-08  6.6914e-06  1:25:40 9614
   387  8.4851e-05  6.1891e-10  2.6732e-10  1.5959e-08  2.3293e-08  6.6691e-06  1:25:21 9613
   388  8.2667e-05  6.1175e-10  2.6421e-10  1.5979e-08  2.3055e-08  6.7611e-06  1:25:03 9612
   389  8.0282e-05  6.0440e-10  2.6078e-10  1.5931e-08  2.2828e-08  6.6638e-06  1:25:00 9611
   390  7.8195e-05  5.9718e-10  2.5752e-10  1.5914e-08  2.2624e-08  6.7090e-06  1:24:49 9610
   391  7.6051e-05  5.9085e-10  2.5465e-10  1.5893e-08  2.2390e-08  6.6781e-06  1:24:39 9609
   392  7.3816e-05  5.8431e-10  2.5176e-10  1.5908e-08  2.2172e-08  6.7007e-06  1:24:28 9608
   393  7.1774e-05  5.7774e-10  2.4876e-10  1.5856e-08  2.1936e-08  6.6506e-06  1:24:30 9607
   394  6.9972e-05  5.7113e-10  2.4602e-10  1.5832e-08  2.1708e-08  6.6810e-06  1:24:13 9606
   395  6.7952e-05  5.6481e-10  2.4326e-10  1.5851e-08  2.1478e-08  6.6787e-06  1:24:20 9605
   396  6.6214e-05  5.5852e-10  2.4040e-10  1.5800e-08  2.1253e-08  6.6590e-06  1:24:14 9604

  iter  continuity  x-velocity  y-velocity      energy           k       omega     time/iter
   397  6.4635e-05  5.5205e-10  2.3781e-10  1.5775e-08  2.1032e-08  6.6719e-06  1:24:10 9603
   398  6.2830e-05  5.4595e-10  2.3533e-10  1.5795e-08  2.0813e-08  6.6638e-06  1:24:06 9602
   399  6.1241e-05  5.3992e-10  2.3267e-10  1.5746e-08  2.0596e-08  6.6220e-06  1:24:26 9601
   400  5.9618e-05  5.3387e-10  2.3032e-10  1.5767e-08  2.0402e-08  6.6173e-06  1:24:18 9600
   401  5.8291e-05  5.2818e-10  2.2789e-10  1.5714e-08  2.0169e-08  6.6516e-06  1:24:24 9599
   402  5.7060e-05  5.2220e-10  2.2543e-10  1.5692e-08  1.9945e-08  6.6586e-06  1:24:24 9598
   403  5.5419e-05  5.1647e-10  2.2305e-10  1.5706e-08  1.9738e-08  6.6723e-06  1:25:12 9597
   404  5.4243e-05  5.1085e-10  2.2053e-10  1.5658e-08  1.9528e-08  6.6318e-06  1:25:09 9596
   405  5.2946e-05  5.0524e-10  2.1826e-10  1.5680e-08  1.9321e-08  6.5731e-06  1:25:05 9595
   406  5.1891e-05  4.9971e-10  2.1600e-10  1.5632e-08  1.9117e-08  6.6361e-06  1:25:14 9594
   407  5.0947e-05  4.9423e-10  2.1379e-10  1.5610e-08  1.8911e-08  6.6330e-06  1:24:59 9593

  iter  continuity  x-velocity  y-velocity      energy           k       omega     time/iter
   408  4.9574e-05  4.8898e-10  2.1160e-10  1.5623e-08  1.8707e-08  6.6347e-06  1:25:13 9592
   409  4.8737e-05  4.8375e-10  2.0945e-10  1.5574e-08  1.8512e-08  6.6381e-06  1:25:00 9591
   410  4.7714e-05  4.7856e-10  2.0744e-10  1.5590e-08  1.8309e-08  6.5601e-06  1:25:07 9590
   411  4.7117e-05  4.7334e-10  2.0523e-10  1.5541e-08  1.8113e-08  6.6273e-06  1:24:54 9589
   412  4.6157e-05  4.6834e-10  2.0315e-10  1.5557e-08  1.7923e-08  6.5254e-06  1:25:10 9588
   413  4.5668e-05  4.6329e-10  2.0117e-10  1.5510e-08  1.7735e-08  6.6058e-06  1:24:56 9587
   414  4.4773e-05  4.5823e-10  1.9921e-10  1.5526e-08  1.7560e-08  6.5880e-06  1:25:04 9586
   415  4.4447e-05  4.5345e-10  1.9722e-10  1.5478e-08  1.7376e-08  6.6080e-06  1:24:48 9585
   416  4.3624e-05  4.4851e-10  1.9534e-10  1.5492e-08  1.7211e-08  6.5633e-06  1:24:56 9584
   417  4.3379e-05  4.4380e-10  1.9338e-10  1.5442e-08  1.7045e-08  6.6370e-06  1:24:43 9583
   418  4.2578e-05  4.3905e-10  1.9162e-10  1.5457e-08  1.6880e-08  6.6277e-06  1:25:10 9582

  iter  continuity  x-velocity  y-velocity      energy           k       omega     time/iter
   419  4.2425e-05  4.3434e-10  1.8982e-10  1.5407e-08  1.6722e-08  6.6295e-06  1:24:48 9581
   420  4.1692e-05  4.2961e-10  1.8811e-10  1.5423e-08  1.6566e-08  6.5176e-06  1:24:32 9580
   421  4.1601e-05  4.2509e-10  1.8642e-10  1.5373e-08  1.6414e-08  6.6091e-06  1:24:23 9579
   422  4.0975e-05  4.2058e-10  1.8482e-10  1.5386e-08  1.6270e-08  6.5595e-06  1:24:14 9578
   423  4.0933e-05  4.1609e-10  1.8332e-10  1.5339e-08  1.6143e-08  6.6343e-06  1:23:53 9577
   424  4.0342e-05  4.1181e-10  1.8205e-10  1.5352e-08  1.5985e-08  6.5275e-06  1:23:22 9576
   425  4.0178e-05  4.0737e-10  1.8036e-10  1.5358e-08  1.5858e-08  6.5272e-06  1:23:16 9575
   426  4.0045e-05  4.0301e-10  1.7866e-10  1.5298e-08  1.5740e-08  6.6373e-06  1:22:54 9574
   427  3.9252e-05  3.9884e-10  1.7706e-10  1.5309e-08  1.5628e-08  6.5144e-06  1:22:56 9573
   428  3.9421e-05  3.9476e-10  1.7551e-10  1.5261e-08  1.5513e-08  6.6425e-06  1:22:36 9572
   429  3.8771e-05  3.9069e-10  1.7393e-10  1.5273e-08  1.5386e-08  6.5675e-06  1:22:40 9571

  iter  continuity  x-velocity  y-velocity      energy           k       omega     time/iter
   430  3.8798e-05  3.8651e-10  1.7223e-10  1.5229e-08  1.5278e-08  6.6041e-06  1:22:35 9570
   431  3.8186e-05  3.8264e-10  1.7068e-10  1.5241e-08  1.5159e-08  6.6407e-06  1:22:44 9569
   432  3.8072e-05  3.7872e-10  1.6915e-10  1.5249e-08  1.5030e-08  6.6239e-06  1:22:48 9568
   433  3.7992e-05  3.7490e-10  1.6756e-10  1.5194e-08  1.4910e-08  6.6245e-06  1:22:51 9567
   434  3.7259e-05  3.7112e-10  1.6603e-10  1.5206e-08  1.4784e-08  6.5121e-06  1:22:51 9566
   435  3.7462e-05  3.6728e-10  1.6446e-10  1.5165e-08  1.4670e-08  6.6488e-06  1:23:08 9565
   436  3.6709e-05  3.6373e-10  1.6298e-10  1.5174e-08  1.4556e-08  6.5130e-06  1:22:42 9564
   437  3.6536e-05  3.5995e-10  1.6146e-10  1.5177e-08  1.4416e-08  6.5546e-06  1:23:14 9563
   438  3.6573e-05  3.5623e-10  1.5988e-10  1.5123e-08  1.4335e-08  6.6574e-06  1:22:44 9562
   439  3.5708e-05  3.5257e-10  1.5837e-10  1.5132e-08  1.4214e-08  6.5078e-06  1:22:45 9561
   440  3.6006e-05  3.4896e-10  1.5698e-10  1.5088e-08  1.4123e-08  6.6151e-06  1:22:23 9560

  iter  continuity  x-velocity  y-velocity      energy           k       omega     time/iter
   441  3.5264e-05  3.4540e-10  1.5561e-10  1.5096e-08  1.4038e-08  6.5421e-06  1:22:18 9559
   442  3.5203e-05  3.4189e-10  1.5430e-10  1.5095e-08  1.3948e-08  6.6271e-06  1:22:27 9558
   443  3.5391e-05  3.3852e-10  1.5297e-10  1.5038e-08  1.3885e-08  6.6435e-06  1:22:12 9557
   444  3.4487e-05  3.3518e-10  1.5173e-10  1.5046e-08  1.3770e-08  6.5650e-06  1:23:09 9556
   445  3.4453e-05  3.3176e-10  1.5040e-10  1.5050e-08  1.3712e-08  6.5372e-06  1:23:49 9555
   446  3.4541e-05  3.2861e-10  1.4917e-10  1.4992e-08  1.3603e-08  6.6620e-06  1:23:31 9554
   447  3.3529e-05  3.2537e-10  1.4790e-10  1.5001e-08  1.3544e-08  6.4999e-06  1:23:04 9553
   448  3.3318e-05  3.2220e-10  1.4673e-10  1.5001e-08  1.3445e-08  6.5064e-06  1:23:11 9552
   449  3.3527e-05  3.1929e-10  1.4565e-10  1.4943e-08  1.3376e-08  6.6337e-06  1:22:47 9551
   450  3.2465e-05  3.1610e-10  1.4437e-10  1.4951e-08  1.3283e-08  6.5331e-06  1:22:38 9550
   451  3.2352e-05  3.1308e-10  1.4325e-10  1.4954e-08  1.3220e-08  6.5908e-06  1:22:40 9549

  iter  continuity  x-velocity  y-velocity      energy           k       omega     time/iter
   452  3.2520e-05  3.1006e-10  1.4203e-10  1.4901e-08  1.3137e-08  6.5805e-06  1:22:15 9548
   453  3.1518e-05  3.0701e-10  1.4075e-10  1.4910e-08  1.3027e-08  6.5855e-06  1:22:12 9547
   454  3.1350e-05  3.0408e-10  1.3946e-10  1.4913e-08  1.2960e-08  6.6221e-06  1:22:26 9546
   455  3.1567e-05  3.0111e-10  1.3818e-10  1.4855e-08  1.2871e-08  6.5930e-06  1:22:23 9545
   456  3.0578e-05  2.9845e-10  1.3709e-10  1.4863e-08  1.2812e-08  6.5428e-06  1:27:45 9544
   457  3.0534e-05  2.9553e-10  1.3585e-10  1.4866e-08  1.2729e-08  6.5457e-06  1:26:44 9543
   458  3.0705e-05  2.9286e-10  1.3480e-10  1.4810e-08  1.2676e-08  6.6261e-06  1:25:45 9542
   459  2.9630e-05  2.9003e-10  1.3370e-10  1.4819e-08  1.2588e-08  6.4843e-06  1:24:44 9541
   460  2.9437e-05  2.8719e-10  1.3252e-10  1.4822e-08  1.2525e-08  6.5100e-06  1:24:27 9540
   461  2.9534e-05  2.8460e-10  1.3137e-10  1.4767e-08  1.2468e-08  6.6109e-06  1:23:41 9539
   462  2.8474e-05  2.8182e-10  1.3023e-10  1.4778e-08  1.2377e-08  6.4755e-06  1:23:28 9538

  iter  continuity  x-velocity  y-velocity      energy           k       omega     time/iter
   463  2.8283e-05  2.7907e-10  1.2906e-10  1.4782e-08  1.2326e-08  6.4715e-06  1:22:55 9537
   464  2.7871e-05  2.7647e-10  1.2794e-10  1.4775e-08  1.2237e-08  6.5336e-06  1:22:49 9536
   465  2.8150e-05  2.7381e-10  1.2678e-10  1.4718e-08  1.2176e-08  6.6012e-06  1:22:41 9535
   466  2.6972e-05  2.7134e-10  1.2573e-10  1.4728e-08  1.2123e-08  6.4905e-06  1:33:24 9534
   467  2.6722e-05  2.6866e-10  1.2464e-10  1.4728e-08  1.2039e-08  6.4675e-06  1:31:11 9533
   468  2.7065e-05  2.6607e-10  1.2359e-10  1.4673e-08  1.1978e-08  6.5966e-06  1:29:04 9532
   469  2.6000e-05  2.6366e-10  1.2272e-10  1.4683e-08  1.1914e-08  6.5422e-06  1:27:37 9531
   470  2.5885e-05  2.6093e-10  1.2175e-10  1.4688e-08  1.1850e-08  6.5174e-06  1:26:29 9530
   471  2.5522e-05  2.5845e-10  1.2068e-10  1.4682e-08  1.1801e-08  6.4622e-06  1:25:34 9529
   472  2.5816e-05  2.5601e-10  1.1956e-10  1.4623e-08  1.1733e-08  6.5538e-06  1:24:35 9528
   473  2.4600e-05  2.5366e-10  1.1868e-10  1.4630e-08  1.1675e-08  6.4921e-06  1:24:14 9527

  iter  continuity  x-velocity  y-velocity      energy           k       omega     time/iter
   474  2.4629e-05  2.5120e-10  1.1776e-10  1.4636e-08  1.1627e-08  6.5297e-06  1:23:30 9526
   475  2.4458e-05  2.4875e-10  1.1675e-10  1.4629e-08  1.1550e-08  6.4656e-06  1:23:33 9525
   476  2.4842e-05  2.4649e-10  1.1572e-10  1.4574e-08  1.1492e-08  6.5383e-06  1:23:16 9524
   477  2.3593e-05  2.4428e-10  1.1482e-10  1.4579e-08  1.1442e-08  6.4810e-06  1:22:49 9523
   478  2.3382e-05  2.4185e-10  1.1398e-10  1.4578e-08  1.1364e-08  6.4987e-06  1:22:23 9522
   479  2.3103e-05  2.3948e-10  1.1312e-10  1.4571e-08  1.1309e-08  6.4847e-06  1:22:23 9521
   480  2.3503e-05  2.3726e-10  1.1231e-10  1.4518e-08  1.1259e-08  6.5571e-06  1:22:02 9520
   481  2.2187e-05  2.3508e-10  1.1161e-10  1.4522e-08  1.1200e-08  6.4532e-06  1:22:12 9519
   482  2.2026e-05  2.3279e-10  1.1084e-10  1.4524e-08  1.1157e-08  6.5056e-06  1:21:54 9518
   483  2.1779e-05  2.3056e-10  1.0993e-10  1.4518e-08  1.1082e-08  6.5372e-06  1:21:54 9517
   484  2.2252e-05  2.2846e-10  1.0903e-10  1.4464e-08  1.1033e-08  6.5743e-06  1:21:37 9516

  iter  continuity  x-velocity  y-velocity      energy           k       omega     time/iter
   485  2.0985e-05  2.2639e-10  1.0827e-10  1.4469e-08  1.0971e-08  6.4609e-06  1:21:36 9515
   486  2.0825e-05  2.2413e-10  1.0738e-10  1.4469e-08  1.0916e-08  6.4921e-06  1:21:24 9514
   487  2.0533e-05  2.2203e-10  1.0650e-10  1.4463e-08  1.0868e-08  6.4902e-06  1:21:44 9513
   488  2.1074e-05  2.2005e-10  1.0560e-10  1.4410e-08  1.0836e-08  6.5605e-06  1:21:30 9512
   489  1.9912e-05  2.1810e-10  1.0496e-10  1.4414e-08  1.0765e-08  6.5208e-06  1:21:29 9511
   490  1.9801e-05  2.1593e-10  1.0431e-10  1.4414e-08  1.0711e-08  6.5429e-06  1:21:17 9510
   491  1.9638e-05  2.1382e-10  1.0344e-10  1.4409e-08  1.0664e-08  6.5192e-06  1:21:18 9509
   492  1.9405e-05  2.1188e-10  1.0262e-10  1.4402e-08  1.0612e-08  6.4736e-06  1:21:16 9508
   493  2.0055e-05  2.1000e-10  1.0171e-10  1.4347e-08  1.0561e-08  6.5504e-06  1:21:17 9507
   494  1.8753e-05  2.0809e-10  1.0105e-10  1.4352e-08  1.0505e-08  6.4466e-06  1:24:30 9506
   495  1.8616e-05  2.0601e-10  1.0030e-10  1.4354e-08  1.0450e-08  6.4420e-06  1:24:43 9505

  iter  continuity  x-velocity  y-velocity      energy           k       omega     time/iter
   496  1.8418e-05  2.0401e-10  9.9402e-11  1.4349e-08  1.0402e-08  6.4633e-06  1:24:12 9504
   497  1.9029e-05  2.0220e-10  9.8492e-11  1.4297e-08  1.0359e-08  6.5001e-06  1:23:27 9503
   498  1.7872e-05  2.0036e-10  9.7812e-11  1.4303e-08  1.0309e-08  6.4517e-06  1:23:03 9502
   499  1.7825e-05  1.9843e-10  9.7029e-11  1.4304e-08  1.0262e-08  6.5074e-06  1:22:30 9501

>> Dividing domain into 40 partitions using Metis.
   Time = 0.0418301 seconds.
   Done.

>> 40 Stored Partitions:
   ----------------------------------------------------------------------
   Collective Partition Statistics:        Minimum   Maximum   Total     
   ----------------------------------------------------------------------
   Cell count                              14230     14392     574238    
   Mean cell count deviation               -0.9%     0.3%      
   Partition boundary cell count           97        637       16734     
   Partition boundary cell count ratio     0.7%      4.4%      2.9%      

   Face count                              29014     29634     1157625   
   Mean face count deviation               -0.6%     1.5%      
   Partition boundary face count           121       802       10377     
   Partition boundary face count ratio     0.4%      2.8%      0.9%      

   Cell weights                            1e+05     1e+05     6e+06     
   Mean cell weight deviation              -6.7%     0.4%      

   Partition neighbor count                1         8         
   ----------------------------------------------------------------------
   Partition Method                        Metis                                
   Stored Partition Count                  40                                   
Done.

Adapting mesh...
done.
   500  4.4724e-04  5.6761e-10  5.9414e-10  1.4729e-08  1.3016e-08  6.5276e-06  1:37:50 9500
   501  2.5935e-04  3.9521e-10  3.5061e-10  1.4552e-08  1.1555e-08  6.7483e-06  1:34:22 9499
   502  1.5162e-04  3.1059e-10  2.3884e-10  1.4471e-08  1.0883e-08  6.7230e-06  1:31:48 9498
   503  9.1523e-05  2.6680e-10  1.8230e-10  1.4423e-08  1.0556e-08  6.5656e-06  1:29:56 9497
   504  7.6348e-05  2.4208e-10  1.5141e-10  1.4369e-08  1.0379e-08  6.5274e-06  1:28:12 9496
   505  7.0635e-05  2.2791e-10  1.3514e-10  1.4321e-08  1.0274e-08  6.4826e-06  1:27:03 9495
   506  6.7847e-05  2.1936e-10  1.2627e-10  1.4278e-08  1.0190e-08  6.4655e-06  1:25:55 9494

  iter  continuity  x-velocity  y-velocity      energy           k       omega     time/iter
   507  6.4154e-05  2.1399e-10  1.2055e-10  1.4240e-08  1.0114e-08  6.4580e-06  1:25:12 9493
   508  5.8667e-05  2.1022e-10  1.1646e-10  1.4206e-08  1.0047e-08  6.4512e-06  1:24:34 9492
   509  5.2783e-05  2.0757e-10  1.1330e-10  1.4175e-08  9.9862e-09  6.4455e-06  1:23:58 9491
   510  4.7398e-05  2.0542e-10  1.1066e-10  1.4147e-08  9.9310e-09  6.4424e-06  1:23:19 9490
   511  4.2290e-05  2.0352e-10  1.0831e-10  1.4213e-08  9.8711e-09  6.4405e-06  1:22:59 9489
   512  3.7763e-05  2.0146e-10  1.0593e-10  1.4240e-08  9.8248e-09  6.4309e-06  1:22:38 9488
   513  3.4083e-05  1.9940e-10  1.0368e-10  1.4127e-08  9.7832e-09  6.4504e-06  1:22:51 9487
   514  3.0318e-05  1.9764e-10  1.0165e-10  1.4187e-08  9.7327e-09  6.4327e-06  1:22:25 9486
   515  2.7615e-05  1.9567e-10  9.9826e-11  1.4207e-08  9.6927e-09  6.4245e-06  1:22:13 9485
   516  2.5285e-05  1.9378e-10  9.8140e-11  1.4210e-08  9.6521e-09  6.4191e-06  1:22:04 9484
   517  2.4019e-05  1.9198e-10  9.6600e-11  1.4093e-08  9.6049e-09  6.4640e-06  1:21:54 9483

  iter  continuity  x-velocity  y-velocity      energy           k       omega     time/iter
   518  2.1566e-05  1.9016e-10  9.5085e-11  1.4143e-08  9.5552e-09  6.4248e-06  1:21:39 9482
   519  2.0153e-05  1.8804e-10  9.3825e-11  1.4158e-08  9.5119e-09  6.4219e-06  1:21:37 9481
   520  1.8972e-05  1.8610e-10  9.2727e-11  1.4161e-08  9.4728e-09  6.4166e-06  1:21:24 9480
   521  1.8055e-05  1.8419e-10  9.1670e-11  1.4160e-08  9.4334e-09  6.4246e-06  1:21:23 9479
   522  1.7283e-05  1.8227e-10  9.0638e-11  1.4156e-08  9.3948e-09  6.4256e-06  1:21:13 9478
   523  1.6615e-05  1.8032e-10  8.9625e-11  1.4151e-08  9.3552e-09  6.4239e-06  1:21:24 9477
   524  1.7231e-05  1.7842e-10  8.8631e-11  1.4040e-08  9.3257e-09  6.4700e-06  1:21:14 9476
   525  1.5813e-05  1.7661e-10  8.7700e-11  1.4083e-08  9.2806e-09  6.4231e-06  1:21:14 9475
   526  1.5383e-05  1.7444e-10  8.6823e-11  1.4097e-08  9.2440e-09  6.4192e-06  1:21:07 9474
   527  1.5034e-05  1.7256e-10  8.6082e-11  1.4098e-08  9.2073e-09  6.4197e-06  1:21:10 9473
   528  1.4789e-05  1.7068e-10  8.5291e-11  1.4097e-08  9.1725e-09  6.4222e-06  1:21:02 9472

  iter  continuity  x-velocity  y-velocity      energy           k       omega     time/iter
   529  1.4561e-05  1.6884e-10  8.4455e-11  1.4094e-08  9.1391e-09  6.4230e-06  1:21:09 9471
   530  1.4376e-05  1.6700e-10  8.3547e-11  1.4091e-08  9.1060e-09  6.4236e-06  1:21:09 9470
   531  1.5472e-05  1.6528e-10  8.2649e-11  1.3991e-08  9.0852e-09  6.4646e-06  1:21:13 9469
   532  1.4409e-05  1.6355e-10  8.1773e-11  1.4028e-08  9.0440e-09  6.4258e-06  1:21:20 9468
   533  1.4266e-05  1.6160e-10  8.0933e-11  1.4042e-08  9.0107e-09  6.4205e-06  1:21:18 9467
   534  1.4188e-05  1.5982e-10  8.0182e-11  1.4043e-08  8.9778e-09  6.4225e-06  1:21:06 9466
   535  1.4159e-05  1.5807e-10  7.9487e-11  1.4042e-08  8.9467e-09  6.4239e-06  1:20:56 9465
   536  1.4097e-05  1.5637e-10  7.8751e-11  1.4040e-08  8.9163e-09  6.4268e-06  1:20:59 9464
   537  1.5196e-05  1.5479e-10  7.7996e-11  1.3947e-08  8.8959e-09  6.4660e-06  1:20:51 9463
   538  1.4110e-05  1.5315e-10  7.7227e-11  1.3982e-08  8.8536e-09  6.4324e-06  1:20:46 9462
   539  1.4051e-05  1.5139e-10  7.6522e-11  1.3996e-08  8.8242e-09  6.4249e-06  1:20:54 9461

  iter  continuity  x-velocity  y-velocity      energy           k       omega     time/iter
   540  1.4146e-05  1.4978e-10  7.5819e-11  1.3998e-08  8.7977e-09  6.4272e-06  1:21:00 9460
   541  1.4183e-05  1.4823e-10  7.5132e-11  1.3998e-08  8.7694e-09  6.4285e-06  1:21:00 9459
   542  1.5288e-05  1.4685e-10  7.4467e-11  1.3909e-08  8.7528e-09  6.4701e-06  1:21:02 9458
   543  1.4286e-05  1.4537e-10  7.3806e-11  1.3942e-08  8.7151e-09  6.4320e-06  1:20:53 9457
   544  1.4261e-05  1.4376e-10  7.3170e-11  1.3953e-08  8.6892e-09  6.4254e-06  1:20:58 9456
   545  1.4233e-05  1.4228e-10  7.2520e-11  1.3955e-08  8.6658e-09  6.4266e-06  1:20:34 9455
   546  1.4162e-05  1.4081e-10  7.1866e-11  1.3954e-08  8.6361e-09  6.4313e-06  1:20:36 9454
   547  1.5099e-05  1.3947e-10  7.1205e-11  1.3871e-08  8.6493e-09  6.4740e-06  1:20:16 9453
   548  1.3936e-05  1.3805e-10  7.0553e-11  1.3900e-08  8.6394e-09  6.4366e-06  1:20:09 9452
   549  1.3756e-05  1.3650e-10  6.9930e-11  1.3911e-08  8.6319e-09  6.4311e-06  1:19:54 9451
   550  1.3628e-05  1.3511e-10  6.9302e-11  1.3913e-08  8.6226e-09  6.4314e-06  1:20:16 9450

  iter  continuity  x-velocity  y-velocity      energy           k       omega     time/iter
   551  1.4469e-05  1.3393e-10  6.8706e-11  1.3831e-08  8.5771e-09  6.4727e-06  1:19:59 9449
   552  1.3535e-05  1.3259e-10  6.8156e-11  1.3863e-08  8.5618e-09  6.4374e-06  1:19:57 9448
   553  1.3585e-05  1.3115e-10  6.7581e-11  1.3875e-08  8.5626e-09  6.4278e-06  1:19:45 9447
   554  1.3578e-05  1.2987e-10  6.7000e-11  1.3877e-08  8.5553e-09  6.4292e-06  1:19:51 9446
   555  1.4361e-05  1.2873e-10  6.6434e-11  1.3796e-08  8.5668e-09  6.4714e-06  1:19:40 9445
   556  1.3426e-05  1.2747e-10  6.5928e-11  1.3826e-08  8.5468e-09  6.4362e-06  1:19:40 9444
   557  1.3406e-05  1.2616e-10  6.5392e-11  1.3838e-08  8.5392e-09  6.4302e-06  1:19:38 9443
   558  1.4004e-05  1.2507e-10  6.4796e-11  1.3762e-08  8.5456e-09  6.4687e-06  1:19:38 9442
   559  1.3214e-05  1.2390e-10  6.4279e-11  1.3793e-08  8.5294e-09  6.4416e-06  1:20:05 9441
   560  1.3305e-05  1.2265e-10  6.3708e-11  1.3816e-08  8.5179e-09  6.4765e-06  1:20:38 9440
   561  1.3769e-05  1.2162e-10  6.3136e-11  1.3731e-08  8.5170e-09  6.4826e-06  1:20:54 9439

  iter  continuity  x-velocity  y-velocity      energy           k       omega     time/iter
   562  1.3027e-05  1.2051e-10  6.2627e-11  1.3773e-08  8.4968e-09  6.4569e-06  1:20:42 9438
   563  1.3077e-05  1.1936e-10  6.2098e-11  1.3790e-08  8.4871e-09  6.4489e-06  1:20:29 9437
   564  1.3486e-05  1.1836e-10  6.1541e-11  1.3703e-08  8.4822e-09  6.4626e-06  1:20:27 9436
   565  1.2713e-05  1.1732e-10  6.1041e-11  1.3745e-08  8.4608e-09  6.4490e-06  1:20:09 9435
   566  1.2752e-05  1.1618e-10  6.0469e-11  1.3763e-08  8.4449e-09  6.4476e-06  1:20:10 9434
   567  1.3132e-05  1.1527e-10  5.9914e-11  1.3673e-08  8.4380e-09  6.4563e-06  1:19:55 9433
   568  1.2317e-05  1.1428e-10  5.9434e-11  1.3713e-08  8.4195e-09  6.4482e-06  1:19:53 9432
[...]
o mach yes 1 0 line_0.0244 ()/plot plot yes M2.25_Pres_5222_Pchm_170_300K_Leeds/Contour_Data/axial_temperature_y_122 yes no no temperature yes 1 0 line_0.0244 ()/plot plot yes M2.25_Pres_5222_Pchm_170_300K_Leeds/Contour_Data/axial_density_y_122 yes no no density yes 1 0 line_0.0244 ()/surface/line-surface line_0.0246 0.041621 0.0246 0.774 0.0246/plot plot yes M2.25_Pres_5222_Pchm_170_300K_Leeds/Contour_Data/axial_pressure_y_123 yes no no total-pressure yes 1 0 line_0.0246 ()/plot plot yes M2.25_Pres_5222_Pchm_170_300K_Leeds/Contour_Data/axial_mach_y_123 yes no no mach yes 1 0 line_0.0246 ()/plot plot yes M2.25_Pres_5222_Pchm_170_300K_Leeds/Contour_Data/axial_temperature_y_123 yes no no temperature yes 1 0 line_0.0246 ()/plot plot yes M2.25_Pres_5222_Pchm_170_300K_Leeds/Contour_Data/axial_density_y_123 yes no no density yes 1 0 line_0.0246 ()/surface/line-surface line_0.0248 0.041621 0.0248 0.774 0.0248/plot plot yes M2.25_Pres_5222_Pchm_170_300K_Leeds/Contour_Data/axial_pressure_y_124 yes no no total-pressure yes 1 0 line_0.0248 ()/plot plot yes M2.25_Pres_5222_Pchm_170_300K_Leeds/Contour_Data/axial_mach_y_124 yes no no mach yes 1 0 line_0.0248 ()/plot plot yes M2.25_Pres_5222_Pchm_170_300K_Leeds/Contour_Data/axial_temperature_y_124 yes no no temperature yes 1 0 line_0.0248 ()/plot plot yes M2.25_Pres_5222_Pchm_170_300K_Leeds/Contour_Data/axial_density_y_124 yes no no density yes 1 0 line_0.0248 ()/surface/line-surface line_0.025 0.041621 0.025 0.774 0.025/plot plot yes M2.25_Pres_5222_Pchm_170_300K_Leeds/Contour_Data/axial_pressure_y_125 yes no no total-pressure yes 1 0 line_0.025 ()/plot plot yes M2.25_Pres_5222_Pchm_170_300K_Leeds/Contour_Data/axial_mach_y_125 yes no no mach yes 1 0 line_0.025 ()/plot plot yes M2.25_Pres_5222_Pchm_170_300K_Leeds/Contour_Data/axial_temperature_y_125 yes no no temperature yes 1 0 line_0.025 ()/plot plot yes M2.25_Pres_5222_Pchm_170_300K_Leeds/Contour_Data/axial_density_y_125 yes no no density yes 1 0 line_0.025 ()/surface/line-surface line_0.0252 0.041621 0.0252 0.774 0.0252/plot plot yes M2.25_Pres_5222_Pchm_170_300K_Leeds/Contour_Data/axial_pressure_y_126 yes no no total-pressure yes 1 0 line_0.0252 ()/plot plot yes M2.25_Pres_5222_Pchm_170_300K_Leeds/Contour_Data/axial_mach_y_126 yes no no mach yes 1 0 line_0.0252 ()/plot plot yes M2.25_Pres_5222_Pchm_170_300K_Leeds/Contour_Data/axial_temperature_y_126 yes no no temperature yes 1 0 line_0.0252 ()/plot plot yes M2.25_Pres_5222_Pchm_170_300K_Leeds/Contour_Data/axial_density_y_126 yes no no density yes 1 0 line_0.0252 ()/surface/line-surface line_0.0254 0.041621 0.0254 0.774 0.0254/plot plot yes M2.25_Pres_5222_Pchm_170_300K_Leeds/Contour_Data/axial_pressure_y_127 yes no no total-pressure yes 1 0 line_0.0254 ()/plot plot yes M2.25_Pres_5222_Pchm_170_300K_Leeds/Contour_Data/axial_mach_y_127 yes no no mach yes 1 0 line_0.0254 ()/plot plot yes M2.25_Pres_5222_Pchm_170_300K_Leeds/Contour_Data/axial_temperature_y_127 yes no no temperature yes 1 0 line_0.0254 ()/plot plot yes M2.25_Pres_5222_Pchm_170_300K_Leeds/Contour_Data/axial_density_y_127 yes no no density yes 1 0 line_0.0254 ()/surface/line-surface line_0.0256 0.041621 0.0256 0.774 0.0256/plot plot yes M2.25_Pres_5222_Pchm_170_300K_Leeds/Contour_Data/axial_pressure_y_128 yes no no total-pressure yes 1 0 line_0.0256 ()/plot plot yes M2.25_Pres_5222_Pchm_170_300K_Leeds/Contour_Data/axial_mach_y_128 yes no no mach yes 1 0 line_0.0256 ()/plot plot yes M2.25_Pres_5222_Pchm_170_300K_Leeds/Contour_Data/axial_temperature_y_128 yes no no temperature yes 1 0 line_0.0256 ()/plot plot yes M2.25_Pres_5222_Pchm_170_300K_Leeds/Contour_Data/axial_density_y_128 yes no no density yes 1 0 line_0.0256 ()/surface/line-surface line_0.0258 0.041621 0.0258 0.774 0.0258/plot plot yes M2.25_Pres_5222_Pchm_170_300K_Leeds/Contour_Data/axial_pressure_y_129 yes no no total-pressure yes 1 0 line_0.0258 ()/plot plot yes M2.25_Pres_5222_Pchm_170_300K_Leeds/Contour_Data/axial_mach_y_129 yes no no mach yes 1 0 line_0.0258 ()/plot plot yes M2.25_Pres_5222_Pchm_170_300K_Leeds/Contour_Data/axial_temperature_y_129 yes no no temperature yes 1 0 line_0.0258 ()/plot plot yes M2.25_Pres_5222_Pchm_170_300K_Leeds/Contour_Data/axial_density_y_129 yes no no density yes 1 0 line_0.0258 ()/surface/line-surface line_0.026 0.041621 0.026 0.774 0.026/plot plot yes M2.25_Pres_5222_Pchm_170_300K_Leeds/Contour_Data/axial_pressure_y_130 yes no no total-pressure yes 1 0 line_0.026 ()/plot plot yes M2.25_Pres_5222_Pchm_170_300K_Leeds/Contour_Data/axial_mach_y_130 yes no no mach yes 1 0 line_0.026 ()/plot plot yes M2.25_Pres_5222_Pchm_170_300K_Leeds/Contour_Data/axial_temperature_y_130 yes no no temperature yes 1 0 line_0.026 ()/plot plot yes M2.25_Pres_5222_Pchm_170_300K_Leeds/Contour_Data/axial_density_y_130 yes no no density yes 1 0 line_0.026 ()/surface/line-surface line_0.0262 0.041621 0.0262 0.774 0.0262/plot plot yes M2.25_Pres_5222_Pchm_170_300K_Leeds/Contour_Data/axial_pressure_y_131 yes no no total-pressure yes 1 0 line_0.0262 ()/plot plot yes M2.25_Pres_5222_Pchm_170_300K_Leeds/Contour_Data/axial_mach_y_131 yes no no mach yes 1 0 line_0.0262 ()/plot plot yes M2.25_Pres_5222_Pchm_170_300K_Leeds/Contour_Data/axial_temperature_y_131 yes no no temperature yes 1 0 line_0.0262 ()/plot plot yes M2.25_Pres_5222_Pchm_170_300K_Leeds/Contour_Data/axial_density_y_131 yes no no density yes 1 0 line_0.0262 ()/surface/line-surface line_0.0264 0.041621 0.0264 0.774 0.0264/plot plot yes M2.25_Pres_5222_Pchm_170_300K_Leeds/Contour_Data/axial_pressure_y_132 yes no no total-pressure yes 1 0 line_0.0264 ()/plot plot yes M2.25_Pres_5222_Pchm_170_300K_Leeds/Contour_Data/axial_mach_y_132 yes no no mach yes 1 0 line_0.0264 ()/plot plot yes M2.25_Pres_5222_Pchm_170_300K_Leeds/Contour_Data/axial_temperature_y_132 yes no no temperature yes 1 0 line_0.0264 ()/plot plot yes M2.25_Pres_5222_Pchm_170_300K_Leeds/Contour_Data/axial_density_y_132 yes no no density yes 1 0 line_0.0264 ()/surface/line-surface line_0.0266 0.041621 0.0266 0.774 0.0266/plot plot yes M2.25_Pres_5222_Pchm_170_300K_Leeds/Contour_Data/axial_pressure_y_133 yes no no total-pressure yes 1 0 line_0.0266 ()/plot plot yes M2.25_Pres_5222_Pchm_170_300K_Leeds/Contour_Data/axial_mach_y_133 yes no no mach yes 1 0 line_0.0266 ()/plot plot yes M2.25_Pres_5222_Pchm_170_300K_Leeds/Contour_Data/axial_temperature_y_133 yes no no temperature yes 1 0 line_0.0266 ()/plot plot yes M2.25_Pres_5222_Pchm_170_300K_Leeds/Contour_Data/axial_density_y_133 yes no no density yes 1 0 line_0.0266 ()/surface/line-surface line_0.0268 0.041621 0.0268 0.774 0.0268/plot plot yes M2.25_Pres_5222_Pchm_170_300K_Leeds/Contour_Data/axial_pressure_y_134 yes no no total-pressure yes 1 0 line_0.0268 ()/plot plot yes M2.25_Pres_5222_Pchm_170_300K_Leeds/Contour_Data/axial_mach_y_134 yes no no mach yes 1 0 line_0.0268 ()/plot plot yes M2.25_Pres_5222_Pchm_170_300K_Leeds/Contour_Data/axial_temperature_y_134 yes no no temperature yes 1 0 line_0.0268 ()/plot plot yes M2.25_Pres_5222_Pchm_170_300K_Leeds/Contour_Data/axial_density_y_134 yes no no density yes 1 0 line_0.0268 ()/surface/line-surface line_0.027 0.041621 0.027 0.774 0.027/plot plot yes M2.25_Pres_5222_Pchm_170_300K_Leeds/Contour_Data/axial_pressure_y_135 yes no no total-pressure yes 1 0 line_0.027 ()/plot plot yes M2.25_Pres_5222_Pchm_170_300K_Leeds/Contour_Data/axial_mach_y_135 yes no no mach yes 1 0 line_0.027 ()/plot plot yes M2.25_Pres_5222_Pchm_170_300K_Leeds/Contour_Data/axial_temperature_y_135 yes no no temperature yes 1 0 line_0.027 ()/plot plot yes M2.25_Pres_5222_Pchm_170_300K_Leeds/Contour_Data/axial_density_y_135 yes no no density yes 1 0 line_0.027 ()/surface/line-surface line_0.0272 0.041621 0.0272 0.774 0.0272/plot plot yes M2.25_Pres_5222_Pchm_170_300K_Leeds/Contour_Data/axial_pressure_y_136 yes no no total-pressure yes 1 0 line_0.0272 ()/plot plot yes M2.25_Pres_5222_Pchm_170_300K_Leeds/Contour_Data/axial_mach_y_136 yes no no mach yes 1 0 line_0.0272 ()/plot plot yes M2.25_Pres_5222_Pchm_170_300K_Leeds/Contour_Data/axial_temperature_y_136 yes no no temperature yes 1 0 line_0.0272 ()/plot plot yes M2.25_Pres_5222_Pchm_170_300K_Leeds/Contour_Data/axial_density_y_136 yes no no density yes 1 0 line_0.0272 ()/surface/line-surface line_0.0274 0.041621 0.0274 0.774 0.0274/plot plot yes M2.25_Pres_5222_Pchm_170_300K_Leeds/Contour_Data/axial_pressure_y_137 yes no no total-pressure yes 1 0 line_0.0274 ()/plot plot yes M2.25_Pres_5222_Pchm_170_300K_Leeds/Contour_Data/axial_mach_y_137 yes no no mach yes 1 0 line_0.0274 ()/plot plot yes M2.25_Pres_5222_Pchm_170_300K_Leeds/Contour_Data/axial_temperature_y_137 yes no no temperature yes 1 0 line_0.0274 ()/plot plot yes M2.25_Pres_5222_Pchm_170_300K_Leeds/Contour_Data/axial_density_y_137 yes no no density yes 1 0 line_0.0274 ()/surface/line-surface line_0.0276 0.041621 0.0276 0.774 0.0276/plot plot yes M2.25_Pres_5222_Pchm_170_300K_Leeds/Contour_Data/axial_pressure_y_138 yes no no total-pressure yes 1 0 line_0.0276 ()/plot plot yes M2.25_Pres_5222_Pchm_170_300K_Leeds/Contour_Data/axial_mach_y_138 yes no no mach yes 1 0 line_0.0276 ()/plot plot yes M2.25_Pres_5222_Pchm_170_300K_Leeds/Contour_Data/axial_temperature_y_138 yes no no temperature yes 1 0 line_0.0276 ()/plot plot yes M2.25_Pres_5222_Pchm_170_300K_Leeds/Contour_Data/axial_density_y_138 yes no no density yes 1 0 line_0.0276 ()/surface/line-surface line_0.0278 0.041621 0.0278 0.774 0.0278/plot plot yes M2.25_Pres_5222_Pchm_170_300K_Leeds/Contour_Data/axial_pressure_y_139 yes no no total-pressure yes 1 0 line_0.0278 ()/plot plot yes M2.25_Pres_5222_Pchm_170_300K_Leeds/Contour_Data/axial_mach_y_139 yes no no mach yes 1 0 line_0.0278 ()/plot plot yes M2.25_Pres_5222_Pchm_170_300K_Leeds/Contour_Data/axial_temperature_y_139 yes no no temperature yes 1 0 line_0.0278 ()/plot plot yes M2.25_Pres_5222_Pchm_170_300K_Leeds/Contour_Data/axial_density_y_139 yes no no density yes 1 0 line_0.0278 ()/surface/line-surface line_0.028 0.041621 0.028 0.774 0.028/plot plot yes M2.25_Pres_5222_Pchm_170_300K_Leeds/Contour_Data/axial_pressure_y_140 yes no no total-pressure yes 1 0 line_0.028 ()/plot plot yes M2.25_Pres_5222_Pchm_170_300K_Leeds/Contour_Data/axial_mach_y_140 yes no no mach yes 1 0 line_0.028 ()/plot plot yes M2.25_Pres_5222_Pchm_170_300K_Leeds/Contour_Data/axial_temperature_y_140 yes no no temperature yes 1 0 line_0.028 ()/plot plot yes M2.25_Pres_5222_Pchm_170_300K_Leeds/Contour_Data/axial_density_y_140 yes no no density yes 1 0 line_0.028 ()/surface/line-surface line_0.0282 0.041621 0.0282 0.774 0.0282/plot plot yes M2.25_Pres_5222_Pchm_170_300K_Leeds/Contour_Data/axial_pressure_y_141 yes no no total-pressure yes 1 0 line_0.0282 ()/plot plot yes M2.25_Pres_5222_Pchm_170_300K_Leeds/Contour_Data/axial_mach_y_141 yes no no mach yes 1 0 line_0.0282 ()/plot plot yes M2.25_Pres_5222_Pchm_170_300K_Leeds/Contour_Data/axial_temperature_y_141 yes no no temperature yes 1 0 line_0.0282 ()/plot plot yes M2.25_Pres_5222_Pchm_170_300K_Leeds/Contour_Data/axial_density_y_141 yes no no density yes 1 0 line_0.0282 ()/surface/line-surface line_0.0284 0.041621 0.0284 0.774 0.0284/plot plot yes M2.25_Pres_5222_Pchm_170_300K_Leeds/Contour_Data/axial_pressure_y_142 yes no no total-pressure yes 1 0 line_0.0284 ()/plot plot yes M2.25_Pres_5222_Pchm_170_300K_Leeds/Contour_Data/axial_mach_y_142 yes no no mach yes 1 0 line_0.0284 ()/plot plot yes M2.25_Pres_5222_Pchm_170_300K_Leeds/Contour_Data/axial_temperature_y_142 yes no no temperature yes 1 0 line_0.0284 ()/plot plot yes M2.25_Pres_5222_Pchm_170_300K_Leeds/Contour_Data/axial_density_y_142 yes no no density yes 1 0 line_0.0284 ()/surface/line-surface line_0.0286 0.041621 0.0286 0.774 0.0286/plot plot yes M2.25_Pres_5222_Pchm_170_300K_Leeds/Contour_Data/axial_pressure_y_143 yes no no total-pressure yes 1 0 line_0.0286 ()/plot plot yes M2.25_Pres_5222_Pchm_170_300K_Leeds/Contour_Data/axial_mach_y_143 yes no no mach yes 1 0 line_0.0286 ()/plot plot yes M2.25_Pres_5222_Pchm_170_300K_Leeds/Contour_Data/axial_temperature_y_143 yes no no temperature yes 1 0 line_0.0286 ()/plot plot yes M2.25_Pres_5222_Pchm_170_300K_Leeds/Contour_Data/axial_density_y_143 yes no no density yes 1 0 line_0.0286 ()/surface/line-surface line_0.0288 0.041621 0.0288 0.774 0.0288/plot plot yes M2.25_Pres_5222_Pchm_170_300K_Leeds/Contour_Data/axial_pressure_y_144 yes no no total-pressure yes 1 0 line_0.0288 ()/plot plot yes M2.25_Pres_5222_Pchm_170_300K_Leeds/Contour_Data/axial_mach_y_144 yes no no mach yes 1 0 line_0.0288 ()/plot plot yes M2.25_Pres_5222_Pchm_170_300K_Leeds/Contour_Data/axial_temperature_y_144 yes no no temperature yes 1 0 line_0.0288 ()/plot plot yes M2.25_Pres_5222_Pchm_170_300K_Leeds/Contour_Data/axial_density_y_144 yes no no density yes 1 0 line_0.0288 ()/surface/line-surface line_0.029 0.041621 0.029 0.774 0.029/plot plot yes M2.25_Pres_5222_Pchm_170_300K_Leeds/Contour_Data/axial_pressure_y_145 yes no no total-pressure yes 1 0 line_0.029 ()/plot plot yes M2.25_Pres_5222_Pchm_170_300K_Leeds/Contour_Data/axial_mach_y_145 yes no no mach yes 1 0 line_0.029 ()/plot plot yes M2.25_Pres_5222_Pchm_170_300K_Leeds/Contour_Data/axial_temperature_y_145 yes no no temperature yes 1 0 line_0.029 ()/plot plot yes M2.25_Pres_5222_Pchm_170_300K_Leeds/Contour_Data/axial_density_y_145 yes no no density yes 1 0 line_0.029 ()/surface/line-surface line_0.0292 0.041621 0.0292 0.774 0.0292/plot plot yes M2.25_Pres_5222_Pchm_170_300K_Leeds/Contour_Data/axial_pressure_y_146 yes no no total-pressure yes 1 0 line_0.0292 ()/plot plot yes M2.25_Pres_5222_Pchm_170_300K_Leeds/Contour_Data/axial_mach_y_146 yes no no mach yes 1 0 line_0.0292 ()/plot plot yes M2.25_Pres_5222_Pchm_170_300K_Leeds/Contour_Data/axial_temperature_y_146 yes no no temperature yes 1 0 line_0.0292 ()/plot plot yes M2.25_Pres_5222_Pchm_170_300K_Leeds/Contour_Data/axial_density_y_146 yes no no density yes 1 0 line_0.0292 ()/surface/line-surface line_0.0294 0.041621 0.0294 0.774 0.0294/plot plot yes M2.25_Pres_5222_Pchm_170_300K_Leeds/Contour_Data/axial_pressure_y_147 yes no no total-pressure yes 1 0 line_0.0294 ()/plot plot yes M2.25_Pres_5222_Pchm_170_300K_Leeds/Contour_Data/axial_mach_y_147 yes no no mach yes 1 0 line_0.0294 ()/plot plot yes M2.25_Pres_5222_Pchm_170_300K_Leeds/Contour_Data/axial_temperature_y_147 yes no no temperature yes 1 0 line_0.0294 ()/plot plot yes M2.25_Pres_5222_Pchm_170_300K_Leeds/Contour_Data/axial_density_y_147 yes no no density yes 1 0 line_0.0294 ()/surface/line-surface line_0.0296 0.041621 0.0296 0.774 0.0296/plot plot yes M2.25_Pres_5222_Pchm_170_300K_Leeds/Contour_Data/axial_pressure_y_148 yes no no total-pressure yes 1 0 line_0.0296 ()/plot plot yes M2.25_Pres_5222_Pchm_170_300K_Leeds/Contour_Data/axial_mach_y_148 yes no no mach yes 1 0 line_0.0296 ()/plot plot yes M2.25_Pres_5222_Pchm_170_300K_Leeds/Contour_Data/axial_temperature_y_148 yes no no temperature yes 1 0 line_0.0296 ()/plot plot yes M2.25_Pres_5222_Pchm_170_300K_Leeds/Contour_Data/axial_density_y_148 yes no no density yes 1 0 line_0.0296 ()/surface/line-surface line_0.0298 0.041621 0.0298 0.774 0.0298/plot plot yes M2.25_Pres_5222_Pchm_170_300K_Leeds/Contour_Data/axial_pressure_y_149 yes no no total-pressure yes 1 0 line_0.0298 ()/plot plot yes M2.25_Pres_5222_Pchm_170_300K_Leeds/Contour_Data/axial_mach_y_149 yes no no mach yes 1 0 line_0.0298 ()/plot plot yes M2.25_Pres_5222_Pchm_170_300K_Leeds/Contour_Data/axial_temperature_y_149 yes no no temperature yes 1 0 line_0.0298 ()/plot plot yes M2.25_Pres_5222_Pchm_170_300K_Leeds/Contour_Data/axial_density_y_149 yes no no density yes 1 0 line_0.0298 ()/surface/line-surface line_0.03 0.041621 0.03 0.774 0.03/plot plot yes M2.25_Pres_5222_Pchm_170_300K_Leeds/Contour_Data/axial_pressure_y_150 yes no no total-pressure yes 1 0 line_0.03 ()/plot plot yes M2.25_Pres_5222_Pchm_170_300K_Leeds/Contour_Data/axial_mach_y_150 yes no no mach yes 1 0 line_0.03 ()/plot plot yes M2.25_Pres_5222_Pchm_170_300K_Leeds/Contour_Data/axial_temperature_y_150 yes no no temperature yes 1 0 line_0.03 ()/plot plot yes M2.25_Pres_5222_Pchm_170_300K_Leeds/Contour_Data/axial_density_y_150 yes no no density yes 1 0 line_0.03 ()#f


> 
adjoint/                mesh/                   report/
define/                 parallel/               server/
display/                plot/                   solve/
exit                    preferences/            surface/
file/                   print-license-usage     views/

> ;(ti-menu-load-string (format #f "/preferences/appearance graphics-background-color-1 255 255 255"))
;(ti-menu-load-string (format #f "/preferences/appearance graphics-background-color-2 255 255 255"))

adjoint/                mesh/                   report/
define/                 parallel/               server/
display/                plot/                   solve/
exit                    preferences/            surface/
file/                   print-license-usage     views/

> 
adjoint/                mesh/                   report/
define/                 parallel/               server/
display/                plot/                   solve/
exit                    preferences/            surface/
file/                   print-license-usage     views/

> ;(ti-menu-load-string (format #f "/display/views autoscale")
;(ti-menu-load-string (format #f "/display/set/windows ruler? yes")
;(ti-menu-load-string (format #f "/display/save-picture mach-contour")

adjoint/                mesh/                   report/
define/                 parallel/               server/
display/                plot/                   solve/
exit                    preferences/            surface/
file/                   print-license-usage     views/

> ;(ti-menu-load-string (format #f "/display/objects create contour temp-contour field temperature surfaces-list int_fluid () colormap color bgr-modern format %0.4f position 3 font-size 0.05 size 35 length 0.3 width 1.2 () ()"))
;(ti-menu-load-string (format #f "/display/objects/display temp-contour")
;(ti-menu-load-string (format #f "/display/views autoscale")
;(ti-menu-load-string (format #f "/display/set/windows ruler? yes")
;(ti-menu-load-string (format #f "/display/save-picture temp-contour")

adjoint/                mesh/                   report/
define/                 parallel/               server/
display/                plot/                   solve/
exit                    preferences/            surface/
file/                   print-license-usage     views/

> (ti-menu-load-string (format #f "/file/write-case M2.25_Pres_5222_Pchm_170_300K_Leeds/CFD_Data.cas y"))
/file/write-case M2.25_Pres_5222_Pchm_170_300K_Leeds/CFD_Data.cas Fast-loading "/apps/applications/ansys/2023R1/1/default/v231/fluent/fluent23.1.0/addons/afd/lib/hdfio.bin"
Done.

Writing to d13s9b1.arc4.leeds.ac.uk:"/nobackup/scldr/ACRE/M2.25_Pres_5222_Pchm_170_300K_Leeds/CFD_Data.cas.h5" in NODE0 mode and compression level 1 ...
Grouping cells for Laplace smoothing ...
      587286 cells,     2 zones ...
     1190795 faces,    18 zones ...
      583388 nodes,     1 zone  ...
  Done.

  Writing automatic adaption criteria ...
  Done.
Done.
yinvalid command [y]
#t


> (ti-menu-load-string (format #f "/file/write-data M2.25_Pres_5222_Pchm_170_300K_Leeds/CFD_Data.dat y"))
/file/write-data M2.25_Pres_5222_Pchm_170_300K_Leeds/CFD_Data.dat 
Writing to d13s9b1.arc4.leeds.ac.uk:"/nobackup/scldr/ACRE/M2.25_Pres_5222_Pchm_170_300K_Leeds/CFD_Data.dat.h5" in NODE0 mode and compression level 1 ...
  Writing results.
Done.
yinvalid command [y]
#t


> 
adjoint/                mesh/                   report/
define/                 parallel/               server/
display/                plot/                   solve/
exit                    preferences/            surface/
file/                   print-license-usage     views/

> exit 
Posting ANSYS Product Improvement Program performance data 
Done.
Auto-Transcript Stop Time:  10:28:17, 12 Jan 2024 
Total Transcript Time: 7 Minute 22 Second.

Automatic transcript closed.
