/apps/applications/ansys/2023R1/1/default/v231/fluent/fluent23.1.0/bin/fluent -r23.1.0 -t 40 2ddp -g -i /nobackup/scldr/ACRE/CFD_Macro.scm
/apps/applications/ansys/2023R1/1/default/v231/fluent/fluent23.1.0/cortex/lnamd64/cortex.23.1.0 -f fluent -g -i /nobackup/scldr/ACRE/CFD_Macro.scm (fluent "2ddp -pshmem  -host -r23.1.0 -t40 -mpi=intel -path/apps/applications/ansys/2023R1/1/default/v231/fluent -ssh")

Opening input/output transcript to file "/nobackup/scldr/ACRE/fluent-20231124-022850-141498.trn".
Auto-Transcript Start Time:  02:28:50, 24 Nov 2023 
/apps/applications/ansys/2023R1/1/default/v231/fluent/fluent23.1.0/bin/fluent -r23.1.0 2ddp -pshmem -host -t40 -mpi=intel -path/apps/applications/ansys/2023R1/1/default/v231/fluent -ssh -cx d13s9b1.arc4.leeds.ac.uk:35169:43024
Starting /apps/applications/ansys/2023R1/1/default/v231/fluent/fluent23.1.0/lnamd64/2ddp_host/fluent.23.1.0 host -cx d13s9b1.arc4.leeds.ac.uk:35169:43024 "(list (rpsetvar (QUOTE parallel/function) "fluent 2ddp -flux -node -r23.1.0 -t40 -pshmem -mpi=intel -ssh") (rpsetvar (QUOTE parallel/rhost) "") (rpsetvar (QUOTE parallel/ruser) "") (rpsetvar (QUOTE parallel/nprocs_string) "40") (rpsetvar (QUOTE parallel/auto-spawn?) #t) (rpsetvar (QUOTE parallel/trace-level) 0) (rpsetvar (QUOTE parallel/remote-shell) 1) (rpsetvar (QUOTE parallel/path) "/apps/applications/ansys/2023R1/1/default/v231/fluent") (rpsetvar (QUOTE parallel/hostsfile) "") (rpsetvar (QUOTE gpuapp/devices) ""))"

              Welcome to ANSYS Fluent 2023 R1

              Copyright 1987-2023 ANSYS, Inc. All Rights Reserved.
              Unauthorized use, distribution or duplication is prohibited.
              This product is subject to U.S. laws governing export and re-export.
              For full Legal Notice, see documentation.

Build Time: Nov 28 2022 09:30:44 EST  Build Id: 10208  
 
Connected License Server List:	1055@ansys-research.leeds.ac.uk

     --------------------------------------------------------------
     This is an academic version of ANSYS FLUENT. Usage of this product
     license is limited to the terms and conditions specified in your ANSYS
     license form, additional terms section.
     --------------------------------------------------------------
Host spawning Node 0 on machine "d13s9b1.arc4.leeds.ac.uk" (unix).
/apps/applications/ansys/2023R1/1/default/v231/fluent/fluent23.1.0/bin/fluent -r23.1.0 2ddp -flux -node -t40 -pshmem -mpi=intel -ssh -mport 10.12.170.18:10.12.170.18:45810:0
Starting /apps/applications/ansys/2023R1/1/default/v231/fluent/fluent23.1.0/multiport/mpi/lnamd64/intel2021/bin/mpirun --rsh=ssh -f /tmp/fluent-appfile.scldr.141883 -genv FI_PROVIDER tcp -genv FLUENT_ARCH lnamd64 -genv I_MPI_DEBUG 0 -genv I_MPI_ADJUST_REDUCE 2 -genv I_MPI_ADJUST_ALLREDUCE 2 -genv I_MPI_ADJUST_BCAST 8 -genv I_MPI_ADJUST_BARRIER 2 -genv I_MPI_ADJUST_ALLGATHER 2 -genv I_MPI_ADJUST_GATHER 2 -genv I_MPI_ADJUST_ALLTOALL 1 -genv I_MPI_ADJUST_SCATTER 2 -genv I_MPI_ADJUST_SCATTERV 2 -genv I_MPI_ADJUST_ALLGATHERV 2 -genv I_MPI_ADJUST_GATHERV 2 -genv I_MPI_PLATFORM auto -genv PYTHONHOME /apps/applications/ansys/2023R1/1/default/v231/fluent/fluent23.1.0/../../commonfiles/CPython/3_7/linx64/Release/python -genv FLUENT_PROD_DIR /apps/applications/ansys/2023R1/1/default/v231/fluent/fluent23.1.0 -genv FLUENT_AFFINITY 0 -genv I_MPI_PIN enable -genv KMP_AFFINITY disabled -n 40 /apps/applications/ansys/2023R1/1/default/v231/fluent/fluent23.1.0/lnamd64/2ddp_node/fluent_mpi.23.1.0 node -mpiw intel -pic shmem -mport 10.12.170.18:10.12.170.18:45810:0

-----------------------------------------------------------------------------------------
ID     Hostname              Core   O.S.      PID            Vendor                     
-----------------------------------------------------------------------------------------
n0-39  d13s9b1.arc4.leeds.a  40/40  Linux-64  141936-141975  Intel(R) Xeon(R) Gold 6230 
host   d13s9b1.arc4.leeds.a         Linux-64  141693         Intel(R) Xeon(R) Gold 6230 

MPI Option Selected: intel
Selected system interconnect: shared-memory
-----------------------------------------------------------------------------------------


Initializing SGE
Done.
Cleanup script file is /nobackup/scldr/ACRE/cleanup-fluent-d13s9b1.arc4.leeds.ac.uk-141693.sh

Posting ANSYS Product Improvement Program startup data
Done.

Reading journal file /nobackup/scldr/ACRE/CFD_Macro.scm...

> (ti-menu-load-string (format #f "file/read-case /nobackup/scldr/ACRE/M2.25_N2_Pres_5222_Pchm_170_coarse/Mesh.msh ok"))
file/read-case /nobackup/scldr/ACRE/M2.25_N2_Pres_5222_Pchm_170_coarse/Mesh.msh 
Reading "/nobackup/scldr/ACRE/M2.25_N2_Pres_5222_Pchm_170_coarse/Mesh.msh"...

Buffering for file scan...

  133294 nodes.
  132262 quadrilateral cells, zone 14.
  263493 2D interior faces, zone 15.
      68 2D wall faces, zone 16.
      10 2D pressure-inlet faces, zone 17.
     150 2D wall faces, zone 18.
     148 2D wall faces, zone 19.
     643 2D wall faces, zone 20.
      12 2D pressure-outlet faces, zone 21.
     190 2D wall faces, zone 22.
     841 2D axis faces, zone 23.

Building...
     mesh
	auto partitioning mesh by Metis (fast),
	distributing mesh
		parts........................................,
		faces........................................,
		nodes........................................,
		cells........................................,
        bandwidth reduction using Reverse Cuthill-McKee: 2882/70 = 41.1714
     materials,
     interface,
     domains,
     zones,
	axis
	right_reactor_wall
	outlet
	top_reactor_wall
	left_reactor_wall
	nozzle_wall
	inlet
	reservoir_wall
	int_fluid
	fluid
     parallel,
Done.
Warning: The use of axis boundary conditions is not appropriate for
         a 2D/3D flow problem. Please consider changing the zone
         type to symmetry or wall, or the problem to axisymmetric.

Warning: The use of axis boundary conditions is not appropriate for
         a 2D/3D flow problem. Please consider changing the zone
         type to symmetry or wall, or the problem to axisymmetric.

okinvalid command [ok]
#t


> (ti-menu-load-string (format #f "/mesh/scale 0.001 0.001"))
/mesh/scale 0.001 0.001#t


> (ti-menu-load-string (format #f "/define/models/axisymmetric yes"))
/define/models/axisymmetric yes#t


> (ti-menu-load-string (format #f "/define/models/solver/pressure-based yes"))
/define/models/solver/pressure-based yes#t
; density-based explicit, pressure-based or density-based-implicit
(ti-menu-load-string (format #f "/define/models/energy yes yes yes"))
/define/models/energy yes yes yes#t
  ; enable energy model?, compute viscout energy dissipation?, Including diffusion at inlets?
(ti-menu-load-string (format #f "/define/models/viscous/kw-sst yes"))
/define/models/viscous/kw-sst yes#t


> (ti-menu-load-string (format #f "(rpsetvar' sst-a1 0.31)"))
(rpsetvar' sst-a1 0.31)
sst-a1
#t
  ; 0.31
(ti-menu-load-string (format #f "(rpsetvar' sst-kappa 0.41)"))
(rpsetvar' sst-kappa 0.41)
sst-kappa
#t
; 0.41
(ti-menu-load-string (format #f "(rpsetvar' sst-beta-i2 0.0828)"))
(rpsetvar' sst-beta-i2 0.0828)
sst-beta-i2
#t
 ; 0.0828
(ti-menu-load-string (format #f "(rpsetvar' sst-beta-i1 0.075)"))
(rpsetvar' sst-beta-i1 0.075)
sst-beta-i1
#t
 ; 0.075
(ti-menu-load-string (format #f "(rpsetvar' sst-sig-w2 1.168)"))
(rpsetvar' sst-sig-w2 1.168)
sst-sig-w2
#t
 ; 1.168
(ti-menu-load-string (format #f "(rpsetvar' sst-sig-w1 2)"))
(rpsetvar' sst-sig-w1 2)
sst-sig-w1
#t
 ; 2
(ti-menu-load-string (format #f "(rpsetvar' sst-sig-k2 1)"))
(rpsetvar' sst-sig-k2 1)
sst-sig-k2
#t
 ; 1
(ti-menu-load-string (format #f "(rpsetvar' sst-sig-k1 1.176)"))
(rpsetvar' sst-sig-k1 1.176)
sst-sig-k1
#t
 ; 1.176
(ti-menu-load-string (format #f "/define/materials/copy fluid nitrogen"))
/define/materials/copy fluid nitrogen
nitrogen copied from database.

#t


> (ti-menu-load-string (format #f "/define/boundary-conditions/fluid fluid yes nitrogen no no no no no no no"))
/define/boundary-conditions/fluid (fluid)
fluid yes nitrogen no no no no no no no#t


> (ti-menu-load-string (format #f "/define/materials delete air"))
/define/materials delete air#t


> (ti-menu-load-string (format #f "/define/materials change-create nitrogen nitrogen yes ideal-gas no no yes sutherland three-coefficient-method 1.663e-05 273.11 106.67 no no no"))
/define/materials change-create nitrogen nitrogen nitrogen is a fluid
yes 
Density
ideal-gas no data required.

no no yes 
Viscosity
sutherland three-coefficient-method 1.663e-05 273.11 106.67 
no no no#t


> (ti-menu-load-string (format #f "/define/models/viscous/turb-compressibility no"))
/define/models/viscous/turb-compressibility no#t
 ; Turning compressbility effects off
(ti-menu-load-string (format #f "/define/boundary-conditions/zone-type inlet pressure-inlet"))
/define/boundary-conditions/zone-type inlet pressure-inlet#t


> (ti-menu-load-string (format #f "/define/boundary-conditions/zone-type outlet pressure-outlet"))
/define/boundary-conditions/zone-type outlet pressure-outlet#t


> (ti-menu-load-string (format #f "/define/boundary-conditions/wall left_reactor_wall 0 no 0 no no no 0 no no no no 0 no 0 no 1"))
/define/boundary-conditions/wall (reservoir_wall nozzle_wall left_reactor_wall top_reactor_wall right_reactor_wall)
left_reactor_wall 0 no 0 no no no 0 no no no no 0 no 0 no 1#t


> (ti-menu-load-string (format #f "/define/boundary-conditions/wall nozzle_wall 0 no 0 no no no 0 no no no no 0 no 0 no 1"))
/define/boundary-conditions/wall (reservoir_wall nozzle_wall left_reactor_wall top_reactor_wall right_reactor_wall)
nozzle_wall 0 no 0 no no no 0 no no no no 0 no 0 no 1#t


> (ti-menu-load-string (format #f "/define/boundary-conditions/wall reservoir_wall 0 no 0 no no no 0 no no no no 0 no 0 no 1"))
/define/boundary-conditions/wall (reservoir_wall nozzle_wall left_reactor_wall top_reactor_wall right_reactor_wall)
reservoir_wall 0 no 0 no no no 0 no no no no 0 no 0 no 1#t


> (ti-menu-load-string (format #f "/define/boundary-conditions/wall top_reactor_wall 0 no 0 no no no 0 no no no no 0 no 0 no 1"))
/define/boundary-conditions/wall (reservoir_wall nozzle_wall left_reactor_wall top_reactor_wall right_reactor_wall)
top_reactor_wall 0 no 0 no no no 0 no no no no 0 no 0 no 1#t


> (ti-menu-load-string (format #f "/define/boundary-conditions/wall right_reactor_wall 0 no 0 no no no 0 no no no no 0 no 0 no 1"))
/define/boundary-conditions/wall (reservoir_wall nozzle_wall left_reactor_wall top_reactor_wall right_reactor_wall)
right_reactor_wall 0 no 0 no no no 0 no no no no 0 no 0 no 1#t


> (ti-menu-load-string (format #f "/define/boundary-conditions/pressure-inlet inlet yes no 5222.73 no 0 no 300 no yes no no yes 1 1"))
/define/boundary-conditions/pressure-inlet (inlet)
inlet yes no 5222.73 no 0 no 300 no yes no no yes 1 1#t


> (ti-menu-load-string (format #f "/define/boundary-conditions/pressure-outlet outlet yes no 170.65 no 300 no yes no no yes 1 1 yes no no"))
/define/boundary-conditions/pressure-outlet (outlet)
outlet yes no 170.65 no 300 no yes no no yes 1 1 yes no no#t


> (ti-menu-load-string (format #f "/define/operating-conditions/operating-pressure 0"))
/define/operating-conditions/operating-pressure 0#t
 ; |Value in Pa|
(ti-menu-load-string (format #f "/solve/monitors/residual/convergence-criteria 1e-8 1e-8 1e-8 1e-8 1e-8 1e-8"))
/solve/monitors/residual/convergence-criteria 1e-8 1e-8 1e-8 1e-8 1e-8 1e-8#t


> (ti-menu-load-string (format #f "/solve/set/discretization-scheme/mom 1"))
/solve/set/discretization-scheme/mom 1#t
		; [0 1 4 6] = [First Order, Second Order, QUICK, Third Order]
(ti-menu-load-string (format #f "/solve/set/discretization-scheme/pressure 12"))
/solve/set/discretization-scheme/pressure 12#t
	; [12 10 14 11 13] = [Second, Standard, PRESTO!, Linear, Body Force Weighted]
(ti-menu-load-string (format #f "/solve/set/discretization-scheme/k 1"))
/solve/set/discretization-scheme/k 1#t
		; [0 1 4 6] = [First Order, Second Order, QUICK, Third Order]
(ti-menu-load-string (format #f "/solve/set/discretization-scheme/density 1"))
/solve/set/discretization-scheme/density 1#t
		; [0 1 4 6] = [First Order, Second Order, QUICK, Third Order]
(ti-menu-load-string (format #f "/solve/set/discretization-scheme/omega 1"))
/solve/set/discretization-scheme/omega 1#t
		; [0 1 4 6] = [First Order, Second Order, QUICK, Third Order]
(ti-menu-load-string (format #f "/solve/set/discretization-scheme/temperature 1"))
/solve/set/discretization-scheme/temperature 1#t
	; [0 1 4 6] = [First Order, Second Order, QUICK, Third Order]
(ti-menu-load-string (format #f "/solve/set/flux-type no 0"))
/solve/set/flux-type no 0#t
 				; [0 1], Rhie-Chow Distance, Rhie-Chow momentum
(ti-menu-load-string (format #f "/solve/set/p-v-coupling 24"))
/solve/set/p-v-coupling 24#t
				; [20 21 22 24] = [SIMPLE, SIMPLEC, PISO, Coupled]
(ti-menu-load-string (format #f "/solve/set/warped-face-gradient-correction enable? yes no"))
/solve/set/warped-face-gradient-correction enable? yes  
 Warped-Face Gradient Correction enabled. 
 Options:
 Fast mode 
 Memory saving mode 
no
 Memory saving mode will be used.#t
 ;

;This is just to help convergence, i have left relaxation parameters as default and it seems to converge fine.
(ti-menu-load-string (format #f "/solve/set/high-order-term-relaxation enable? yes"))
/solve/set/high-order-term-relaxation enable? yes#t
; 
; This sets pseudo transient using automating conservative timestepping with a timestep factor of 0.5. This acts as under-relaxation.
(ti-menu-load-string (format #f "/solve/set/pseudo-transient yes yes 1 0.5 0"))
/solve/set/pseudo-transient yes yes 1 0.5 0#t
 ;

; setup report definitions
(ti-menu-load-string (format #f "/solve/report-definitions add max-mach surface-vertexmax field mach-number surface-names axis"))
/solve/report-definitions add max-mach surface-vertexmax field mach-number surface-names axis#t
;
(ti-menu-load-string (format #f "/solve/report-files/add max-mach report-defs max-mach"))
/solve/report-files/add max-mach report-defs max-mach#t
;

(ti-menu-load-string (format #f "/solve/report-definitions add min-temp surface-vertexmin field temperature surface-names axis"))
/solve/report-definitions add min-temp surface-vertexmin field temperature surface-names axis#t
;
(ti-menu-load-string (format #f "/solve/report-files/add min-temp report-defs min-temp"))
/solve/report-files/add min-temp report-defs min-temp#t
;

(ti-menu-load-string (format #f "/solve/report-files/edit max-mach file-name M2.25_N2_Pres_5222_Pchm_170_coarse/max-mach-convergence.txt"))
/solve/report-files/edit max-mach file-name M2.25_N2_Pres_5222_Pchm_170_coarse/max-mach-convergence.txt#t


> (ti-menu-load-string (format #f "/solve/report-files/edit min-temp file-name M2.25_N2_Pres_5222_Pchm_170_coarse/min-temp-convergence.txt"))
/solve/report-files/edit min-temp file-name M2.25_N2_Pres_5222_Pchm_170_coarse/min-temp-convergence.txt#t


> 
adjoint/                mesh/                   report/
define/                 parallel/               server/
display/                plot/                   solve/
exit                    preferences/            surface/
file/                   print-license-usage     views/

> 
adjoint/                mesh/                   report/
define/                 parallel/               server/
display/                plot/                   solve/
exit                    preferences/            surface/
file/                   print-license-usage     views/

> ; Initialisation settings and number of itterations
(ti-menu-load-string (format #f "/solve/init/hyb-initialization"))
/solve/init/hyb-initialization
Initialize using the hybrid initialization method.

Checking case topology... 
-This case has both inlets & outlets 
-Pressure information is available at the boundaries

	iter		scalar-0		scalar-1

	1		1.000000e+00	1.000000e+00
	2		3.076189e-06	4.467354e-05
	3		1.068238e-06	5.338018e-06
	4		5.497862e-07	7.916390e-07
	5		4.207912e-07	4.211535e-07
	6		3.411737e-07	2.722436e-07
	7		2.856488e-07	1.868407e-07
	8		2.451735e-07	1.374159e-07
	9		2.147519e-07	1.066650e-07
	10		1.911873e-07	8.733417e-08

Hybrid initialization is done.
#t


> (ti-menu-load-string (format #f "solve init fmg y"))
solve init fmg y
Creating multigrid levels... 
 Grid Level  0: 132262 cells, 265555 faces, 133294 nodes;  40 clusters
 Grid Level  1:  33796 cells, 135243 faces, 133294 nodes;  40 clusters
 Grid Level  1:  33796 cells,  77900 faces,      0 nodes
 Grid Level  2:   9961 cells,  77086 faces, 133294 nodes;  40 clusters
 Grid Level  2:   9961 cells,  26653 faces,      0 nodes
 Grid Level  3:   3219 cells,  48438 faces, 133294 nodes;  40 clusters
 Grid Level  3:   3219 cells,   9915 faces,      0 nodes
 Grid Level  4:   1085 cells,  31625 faces, 133294 nodes;  40 clusters
 Grid Level  4:   1085 cells,   4040 faces,      0 nodes
 Grid Level  5:    375 cells,  20934 faces, 133294 nodes;  40 clusters
 Grid Level  5:    375 cells,   1960 faces,      0 nodes
Done.


FMG: Converge FAS on level 5


FMG: Converge FAS on level 4


FMG: Converge FAS on level 3


FMG: Converge FAS on level 2


FMG: Converge FAS on level 1
0.->1.->2.->3.->4.->5.<<<<<

FMG: Initialize flow for Segregated solution.. . end 
#t


> 
adjoint/                mesh/                   report/
define/                 parallel/               server/
display/                plot/                   solve/
exit                    preferences/            surface/
file/                   print-license-usage     views/

> (ti-menu-load-string (format #f "/mesh/adapt/cell-registers/add yplusrefine type yplus-ystar max-allowed 0.5 min-allowed 0.25 q () q () q ()"))
/mesh/adapt/cell-registers/add yplusrefine type yplus-ystar max-allowed 0.5 min-allowed 0.25 q ()
 q ()
()
 q ()
()
#t


> (ti-menu-load-string (format #f "/mesh/adapt/manage-criteria/add criteria1 type expression refinement-expression \"yplusrefine\" "))
/mesh/adapt/manage-criteria/add criteria1 type expression refinement-expression "yplusrefine" #t


> (ti-menu-load-string (format #f "/mesh/adapt/manage-criteria/edit criteria1 frequency 250"))
/mesh/adapt/manage-criteria/edit criteria1 frequency 250#t


> 
adjoint/                mesh/                   report/
define/                 parallel/               server/
display/                plot/                   solve/
exit                    preferences/            surface/
file/                   print-license-usage     views/

> ;(ti-menu-load-string (format #f "/mesh/adapt/adapt-mesh"))
;(ti-menu-load-string (format #f "/solve/iterate 50"))
;(ti-menu-load-string (format #f "/mesh/adapt/adapt-mesh"))
;(ti-menu-load-string (format #f "/solve/iterate 50"))
;(ti-menu-load-string (format #f "/mesh/adapt/adapt-mesh"))
;(ti-menu-load-string (format #f "/solve/iterate 50"))
;(ti-menu-load-string (format #f "/mesh/adapt/adapt-mesh"))
;(ti-menu-load-string (format #f "/solve/iterate 50"))
;(ti-menu-load-string (format #f "/mesh/adapt/adapt-mesh"))
;(ti-menu-load-string (format #f "/solve/iterate 50"))
;(ti-menu-load-string (format #f "/mesh/adapt/adapt-mesh"))

adjoint/                mesh/                   report/
define/                 parallel/               server/
display/                plot/                   solve/
exit                    preferences/            surface/
file/                   print-license-usage     views/

> (ti-menu-load-string (format #f "/solve/iterate 1000"))
/solve/iterate 1000
  iter  continuity  x-velocity  y-velocity      energy           k       omega     time/iter

>> Dividing domain into 40 partitions using Metis.
   Time = 0.0223598 seconds.
   Done.

>> 40 Stored Partitions:
   ----------------------------------------------------------------------
   Collective Partition Statistics:        Minimum   Maximum   Total     
   ----------------------------------------------------------------------
   Cell count                              3384      3410      135850    
   Mean cell count deviation               -0.4%     0.4%      
   Partition boundary cell count           47        279       7837      
   Partition boundary cell count ratio     1.4%      8.2%      5.8%      

   Face count                              6917      7050      273931    
   Mean face count deviation               -0.7%     1.2%      
   Partition boundary face count           57        332       4826      
   Partition boundary face count ratio     0.8%      4.8%      1.8%      

   Cell weights                            3e+04     3e+04     1e+06     
   Mean cell weight deviation              -7.1%     3.1%      

   Partition neighbor count                1         8         
   ----------------------------------------------------------------------
   Partition Method                        Metis                                
   Stored Partition Count                  40                                   
Done.

Adapting mesh...
   Smoothing partition boundaries...
done.
     1  1.0000e+00  1.0019e-03  1.0542e-04  3.1095e-03  8.5010e-01  4.9649e-01  0:07:26  999
     2  6.3658e-01  4.9135e-04  4.1099e-05  2.7527e-03  8.2474e-01  3.4596e-01  0:06:31  998
     3  4.4857e-01  2.4416e-04  2.6334e-05  1.9583e-03  7.8729e-01  2.3671e-01  0:05:44  997
     4  3.4721e-01  1.2563e-04  2.0797e-05  1.4056e-03  6.2267e-01  1.5974e-01  0:05:09  996
     5  2.9798e-01  6.6794e-05  1.6969e-05  1.0197e-03  2.1307e-01  1.2008e-01  0:04:39  995
     6  2.6969e-01  3.7122e-05  1.4743e-05  6.8927e-04  3.7072e-02  6.6712e-02  0:04:23  994
     7  2.5348e-01  2.2411e-05  1.3055e-05  5.3790e-04  6.9168e-03  6.6964e-02  0:04:08  993
     8  2.4076e-01  1.4792e-05  1.1579e-05  4.9400e-04  3.0526e-03  1.0362e-01  0:03:55  992
     9  2.3183e-01  1.0778e-05  1.0304e-05  4.8396e-04  1.9450e-03  1.1322e-01  0:03:43  991
    10  2.2494e-01  8.5846e-06  9.1460e-06  4.8741e-04  1.2841e-03  1.1220e-01  0:03:34  990
    11  2.1901e-01  7.3070e-06  8.1064e-06  4.9870e-04  8.5631e-04  1.1239e-01  0:03:30  989

  iter  continuity  x-velocity  y-velocity      energy           k       omega     time/iter
    12  2.1425e-01  6.4776e-06  7.2444e-06  5.1326e-04  5.8727e-04  1.1412e-01  0:03:32  988
    13  2.0947e-01  5.8791e-06  6.3934e-06  5.3157e-04  4.3798e-04  1.1961e-01  0:03:31  987
    14  2.0490e-01  5.5069e-06  5.7936e-06  5.4953e-04  3.5284e-04  1.2643e-01  0:03:39  986
    15  2.0025e-01  5.0554e-06  5.3058e-06  5.6369e-04  3.0528e-04  1.2143e-01  0:03:36  985
    16  1.9542e-01  4.7561e-06  4.7484e-06  5.7863e-04  2.7361e-04  1.1638e-01  0:03:40  984
    17  1.9337e-01  4.4933e-06  4.4552e-06  5.8095e-04  2.5875e-04  9.7937e-02  0:03:33  983
    18  1.8860e-01  4.1580e-06  3.9104e-06  5.6808e-04  2.4450e-04  9.4006e-02  0:03:28  982
    19  1.8476e-01  3.9178e-06  3.4967e-06  5.2087e-04  2.2890e-04  9.3949e-02  0:03:32  981
    20  1.8124e-01  3.7313e-06  3.4010e-06  5.1239e-04  2.2345e-04  1.0367e-01  0:03:25  980
    21  1.7692e-01  3.5063e-06  2.9986e-06  5.2255e-04  2.1852e-04  1.0584e-01  0:03:20  979
    22  1.7335e-01  3.3160e-06  2.6845e-06  4.5043e-04  2.1773e-04  6.2366e-02  0:03:18  978

  iter  continuity  x-velocity  y-velocity      energy           k       omega     time/iter
    23  1.6945e-01  3.1247e-06  2.4360e-06  4.1363e-04  2.1930e-04  6.9593e-02  0:03:15  977
    24  1.6526e-01  2.9247e-06  2.2199e-06  3.7198e-04  2.2274e-04  7.6470e-02  0:03:11  976
    25  1.6095e-01  2.7395e-06  2.0520e-06  3.4973e-04  2.2389e-04  1.0544e-01  0:03:08  975
    26  1.5665e-01  2.5589e-06  1.8713e-06  3.1373e-04  2.2182e-04  7.9426e-02  0:03:06  974
    27  1.5227e-01  2.3656e-06  1.7113e-06  2.9219e-04  2.1428e-04  8.0571e-02  0:03:08  973
    28  1.4806e-01  2.1050e-06  1.4848e-06  1.9584e-04  2.0026e-04  5.4512e-02  0:03:07  972
    29  1.4385e-01  1.8585e-06  1.3184e-06  1.5090e-04  1.8057e-04  4.6391e-02  0:03:04  971
    30  1.4014e-01  1.6485e-06  1.1560e-06  1.0080e-04  1.5857e-04  7.0337e-02  0:03:02  970
    31  1.3664e-01  1.4416e-06  1.0115e-06  6.6147e-05  1.3536e-04  7.8241e-02  0:03:01  969
    32  1.3304e-01  1.2370e-06  8.5760e-07  4.0299e-05  1.1334e-04  6.8672e-02  0:03:02  968
    33  1.3004e-01  1.0648e-06  7.2447e-07  3.4148e-05  9.4949e-05  8.4920e-02  0:03:04  967

  iter  continuity  x-velocity  y-velocity      energy           k       omega     time/iter
    34  1.2679e-01  9.2271e-07  6.1565e-07  2.9617e-05  7.9092e-05  8.7045e-02  0:03:01  966
    35  1.2390e-01  8.0376e-07  5.2960e-07  2.5782e-05  6.6633e-05  8.3166e-02  0:02:59  965
    36  1.2042e-01  6.8935e-07  4.5314e-07  2.2168e-05  5.3724e-05  8.2377e-02  0:03:02  964
    37  1.1678e-01  6.1278e-07  3.8853e-07  1.9284e-05  4.5250e-05  8.3441e-02  0:03:01  963
    38  1.1322e-01  5.4870e-07  3.3893e-07  1.6969e-05  3.9364e-05  7.9096e-02  0:02:59  962
    39  1.0962e-01  4.9765e-07  2.9854e-07  1.4957e-05  3.4132e-05  7.7189e-02  0:02:58  961
    40  1.0626e-01  4.6225e-07  2.6175e-07  1.3299e-05  2.9541e-05  7.6308e-02  0:02:59  960
    41  1.0303e-01  4.2998e-07  2.3436e-07  1.1883e-05  2.5846e-05  7.3769e-02  0:02:59  959
    42  1.0016e-01  4.0189e-07  2.1144e-07  1.0697e-05  2.3037e-05  7.1217e-02  0:03:02  958
    43  9.7466e-02  3.7649e-07  1.9278e-07  9.7044e-06  2.0661e-05  6.8500e-02  0:03:01  957
    44  9.4903e-02  3.5461e-07  1.7976e-07  8.8835e-06  1.9167e-05  6.5594e-02  0:03:01  956

  iter  continuity  x-velocity  y-velocity      energy           k       omega     time/iter
    45  9.2218e-02  3.3476e-07  1.6933e-07  8.1574e-06  1.8142e-05  6.1590e-02  0:03:05  955
    46  8.9455e-02  3.1713e-07  1.6091e-07  7.5417e-06  1.7017e-05  5.7452e-02  0:03:07  954
    47  8.6771e-02  3.0025e-07  1.5256e-07  6.9307e-06  1.6175e-05  5.3725e-02  0:03:12  953
    48  8.4277e-02  2.8534e-07  1.4481e-07  6.4415e-06  1.5418e-05  4.9768e-02  0:03:16  952
    49  8.1893e-02  2.7147e-07  1.3825e-07  5.9792e-06  1.4656e-05  4.5665e-02  0:03:16  951
    50  7.9252e-02  2.5810e-07  1.3207e-07  5.5770e-06  1.3995e-05  4.1648e-02  0:03:19  950
    51  7.6695e-02  2.4696e-07  1.2583e-07  5.2433e-06  1.3322e-05  3.7307e-02  0:03:20  949
    52  7.4256e-02  2.3790e-07  1.2004e-07  4.9068e-06  1.2738e-05  3.4168e-02  0:03:23  948
    53  7.1759e-02  2.3007e-07  1.1373e-07  4.5978e-06  1.2211e-05  3.0121e-02  0:03:25  947
    54  6.9249e-02  2.2392e-07  1.0784e-07  4.3526e-06  1.1818e-05  2.7916e-02  0:04:00  946
    55  6.6985e-02  2.1832e-07  1.0211e-07  4.0999e-06  1.1122e-05  2.4549e-02  0:03:52  945

  iter  continuity  x-velocity  y-velocity      energy           k       omega     time/iter
    56  6.4814e-02  2.1251e-07  9.6416e-08  3.8617e-06  1.0788e-05  2.2461e-02  0:03:50  944
    57  6.2516e-02  2.0872e-07  9.1454e-08  3.5825e-06  1.0265e-05  1.7446e-02  0:03:44  943
    58  6.0490e-02  2.0381e-07  8.6385e-08  3.2925e-06  9.7404e-06  1.6065e-02  0:03:38  942
    59  5.8658e-02  1.9949e-07  8.1590e-08  3.0303e-06  9.2368e-06  1.2796e-02  0:03:33  941
    60  5.6856e-02  1.9509e-07  7.7032e-08  2.7364e-06  9.0335e-06  1.0470e-02  0:03:35  940
    61  5.5112e-02  1.9210e-07  7.3131e-08  2.5380e-06  8.5772e-06  7.9029e-03  0:03:31  939
    62  5.3506e-02  1.8815e-07  6.9059e-08  2.3694e-06  8.2003e-06  6.0868e-03  0:03:27  938
    63  5.1954e-02  1.8529e-07  6.5383e-08  2.2075e-06  8.1039e-06  3.8338e-03  0:03:36  937
    64  5.0328e-02  1.8419e-07  6.2211e-08  2.1092e-06  7.9483e-06  3.2327e-03  0:03:37  936
    65  4.8824e-02  1.8233e-07  5.9287e-08  2.0054e-06  7.5305e-06  3.0256e-03  0:03:32  935
    66  4.7465e-02  1.8036e-07  5.6577e-08  1.8920e-06  7.1331e-06  2.9512e-03  0:03:30  934

  iter  continuity  x-velocity  y-velocity      energy           k       omega     time/iter
    67  4.6039e-02  1.7934e-07  5.3928e-08  1.7976e-06  6.8189e-06  2.7688e-03  0:03:27  933
    68  4.4631e-02  1.7955e-07  5.1640e-08  1.7100e-06  6.5460e-06  2.5748e-03  0:03:23  932
    69  4.3282e-02  1.8023e-07  4.9517e-08  1.6367e-06  6.3092e-06  2.4055e-03  0:03:19  931
    70  4.1923e-02  1.8056e-07  4.7570e-08  1.5618e-06  6.0490e-06  2.2340e-03  0:03:16  930
    71  4.0598e-02  1.8097e-07  4.5899e-08  1.5005e-06  5.8496e-06  1.9351e-03  0:03:14  929
    72  3.9224e-02  1.8132e-07  4.4400e-08  1.4392e-06  5.6352e-06  1.7170e-03  0:03:12  928
    73  3.7774e-02  1.8116e-07  4.3118e-08  1.3843e-06  5.4461e-06  1.5254e-03  0:03:10  927
    74  3.6437e-02  1.8077e-07  4.1969e-08  1.3279e-06  5.2557e-06  1.4231e-03  0:03:07  926
    75  3.5158e-02  1.8024e-07  4.0988e-08  1.2803e-06  5.1194e-06  1.1826e-03  0:03:07  925
    76  3.3858e-02  1.7967e-07  4.0158e-08  1.2310e-06  4.9970e-06  9.7540e-04  0:03:06  924
    77  3.2614e-02  1.7875e-07  3.9427e-08  1.1861e-06  4.8912e-06  7.5913e-04  0:03:06  923

  iter  continuity  x-velocity  y-velocity      energy           k       omega     time/iter
    78  3.1355e-02  1.7775e-07  3.8753e-08  1.1425e-06  4.7783e-06  6.1596e-04  0:03:05  922
    79  3.0129e-02  1.7632e-07  3.8149e-08  1.1004e-06  4.6873e-06  5.3881e-04  0:03:04  921
    80  2.8946e-02  1.7455e-07  3.7488e-08  1.0622e-06  4.5627e-06  4.4572e-04  0:03:04  920
    81  2.7667e-02  1.7233e-07  3.6833e-08  1.0268e-06  4.4878e-06  3.4090e-04  0:03:03  919
    82  2.6400e-02  1.7018e-07  3.6364e-08  9.9550e-07  4.3968e-06  2.5152e-04  0:03:02  918
    83  2.5113e-02  1.6745e-07  3.5883e-08  9.6259e-07  4.3064e-06  1.9442e-04  0:03:01  917
    84  2.3899e-02  1.6473e-07  3.5426e-08  9.3130e-07  4.2292e-06  1.6617e-04  0:02:58  916
    85  2.2613e-02  1.6177e-07  3.4985e-08  9.0175e-07  4.1224e-06  1.4790e-04  0:02:58  915
    86  2.1425e-02  1.5865e-07  3.4519e-08  8.7437e-07  4.0269e-06  1.2859e-04  0:03:59  914
    87  2.0326e-02  1.5520e-07  3.4050e-08  8.4661e-07  3.9354e-06  1.0568e-04  0:03:44  913
    88  1.8982e-02  1.5154e-07  3.3588e-08  8.2034e-07  3.8318e-06  9.1999e-05  0:03:32  912

  iter  continuity  x-velocity  y-velocity      energy           k       omega     time/iter
    89  1.7633e-02  1.4786e-07  3.3032e-08  7.9494e-07  3.7446e-06  8.3344e-05  0:03:22  911
    90  1.6278e-02  1.4405e-07  3.2449e-08  7.6899e-07  3.6629e-06  7.5104e-05  0:03:15  910
    91  1.4988e-02  1.4031e-07  3.1822e-08  7.4287e-07  3.5854e-06  6.6909e-05  0:03:08  909
    92  1.3646e-02  1.3676e-07  3.1227e-08  7.1972e-07  3.5166e-06  5.9685e-05  0:03:02  908
    93  1.2350e-02  1.3310e-07  3.0507e-08  6.9666e-07  3.4285e-06  5.7286e-05  0:02:57  907
    94  1.1750e-02  1.2931e-07  2.9762e-08  6.7342e-07  3.3697e-06  5.6131e-05  0:02:54  906
    95  1.1558e-02  1.2571e-07  2.8979e-08  6.5168e-07  3.2982e-06  5.5983e-05  0:02:50  905
    96  1.1537e-02  1.2208e-07  2.8160e-08  6.3001e-07  3.2450e-06  5.6969e-05  0:02:47  904
    97  1.1648e-02  1.1841e-07  2.7308e-08  6.1025e-07  3.2081e-06  5.8918e-05  0:02:46  903
    98  1.1769e-02  1.1489e-07  2.6509e-08  5.9209e-07  3.1515e-06  6.0982e-05  0:02:44  902
    99  1.1996e-02  1.1124e-07  2.5732e-08  5.7279e-07  3.1108e-06  6.2761e-05  0:02:43  901

  iter  continuity  x-velocity  y-velocity      energy           k       omega     time/iter
   100  1.2153e-02  1.0769e-07  2.4977e-08  5.5527e-07  3.0578e-06  6.5283e-05  0:02:43  900
   101  1.2453e-02  1.0426e-07  2.4261e-08  5.3811e-07  3.0219e-06  7.0804e-05  0:02:43  899
   102  1.2647e-02  1.0084e-07  2.3567e-08  5.2277e-07  2.9793e-06  7.2523e-05  0:02:43  898
   103  1.2973e-02  9.7590e-08  2.2952e-08  5.0922e-07  2.9370e-06  7.4051e-05  0:02:44  897
   104  1.3242e-02  9.4258e-08  2.2417e-08  4.9649e-07  2.8897e-06  7.5678e-05  0:02:44  896
   105  1.3596e-02  9.1048e-08  2.1933e-08  4.8424e-07  2.8633e-06  7.7481e-05  0:02:45  895
   106  1.3851e-02  8.7960e-08  2.1520e-08  4.7364e-07  2.8231e-06  7.9193e-05  0:02:46  894
   107  1.4120e-02  8.4914e-08  2.1193e-08  4.6284e-07  2.7911e-06  8.0650e-05  0:02:47  893
   108  1.4338e-02  8.2050e-08  2.0963e-08  4.5231e-07  2.7430e-06  8.2111e-05  0:02:47  892
   109  1.4591e-02  7.9245e-08  2.0745e-08  4.4343e-07  2.7043e-06  8.3438e-05  0:02:47  891
   110  1.4810e-02  7.6552e-08  2.0607e-08  4.3486e-07  2.6600e-06  8.4222e-05  0:02:47  890

  iter  continuity  x-velocity  y-velocity      energy           k       omega     time/iter
   111  1.5004e-02  7.3893e-08  2.0505e-08  4.2726e-07  2.6275e-06  8.4427e-05  0:02:48  889
   112  1.5116e-02  7.1443e-08  2.0443e-08  4.1999e-07  2.5973e-06  8.4615e-05  0:02:49  888
   113  1.5263e-02  6.9148e-08  2.0364e-08  4.1334e-07  2.5713e-06  8.4887e-05  0:02:49  887
   114  1.5346e-02  6.7064e-08  2.0306e-08  4.0657e-07  2.5418e-06  8.4755e-05  0:02:50  886

 Reversed flow on 1 face (8.3% area) of pressure-outlet 21.
   115  1.5400e-02  6.5280e-08  2.0431e-08  4.0374e-07  2.5068e-06  8.4303e-05  0:02:50  885

 Reversed flow on 2 faces (16.7% area) of pressure-outlet 21.
   116  1.5797e-02  6.3627e-08  2.0532e-08  3.9713e-07  2.4806e-06  8.3669e-05  0:02:51  884

 Reversed flow on 3 faces (25.0% area) of pressure-outlet 21.
   117  1.5884e-02  6.2275e-08  2.0710e-08  3.9290e-07  2.4566e-06  8.3003e-05  0:02:51  883

 Reversed flow on 1 face (8.3% area) of pressure-outlet 21.
   118  1.5781e-02  6.1477e-08  2.0976e-08  3.8551e-07  2.4289e-06  8.1938e-05  0:02:50  882

 Reversed flow on 1 face (8.3% area) of pressure-outlet 21.
   119  1.5410e-02  6.0814e-08  2.1019e-08  3.7906e-07  2.4069e-06  8.0136e-05  0:02:50  881

 Reversed flow on 3 faces (25.0% area) of pressure-outlet 21.
   120  1.4911e-02  6.0289e-08  2.0817e-08  3.7711e-07  2.3629e-06  7.9126e-05  0:02:49  880

 Reversed flow on 2 faces (16.7% area) of pressure-outlet 21.
   121  1.5033e-02  6.0069e-08  2.0648e-08  3.6814e-07  2.3501e-06  7.4284e-05  0:02:49  879

  iter  continuity  x-velocity  y-velocity      energy           k       omega     time/iter
   122  1.4748e-02  6.0010e-08  2.1258e-08  3.6229e-07  2.3167e-06  7.7038e-05  0:02:47  878
   123  1.4363e-02  5.9941e-08  2.1030e-08  3.5478e-07  2.2831e-06  7.4849e-05  0:02:45  877
   124  1.3756e-02  5.9887e-08  2.0532e-08  3.4780e-07  2.2541e-06  7.2034e-05  0:02:43  876
   125  1.3253e-02  5.9955e-08  2.0223e-08  3.4109e-07  2.2285e-06  6.6286e-05  0:02:41  875
   126  1.2804e-02  6.0057e-08  1.9992e-08  3.3488e-07  2.2062e-06  6.4594e-05  0:02:40  874
   127  1.2354e-02  6.0129e-08  1.9829e-08  3.2792e-07  2.1776e-06  6.2900e-05  0:02:38  873
   128  1.1894e-02  6.0091e-08  1.9705e-08  3.2040e-07  2.1514e-06  6.3037e-05  0:02:37  872
   129  1.1415e-02  6.0066e-08  1.9567e-08  3.1362e-07  2.1295e-06  5.7117e-05  0:02:35  871
   130  1.0935e-02  5.9982e-08  1.9409e-08  3.0667e-07  2.1069e-06  5.4157e-05  0:02:34  870
   131  1.0474e-02  5.9798e-08  1.9230e-08  2.9991e-07  2.0848e-06  5.1534e-05  0:02:33  869
   132  1.0033e-02  5.9552e-08  1.8986e-08  2.9374e-07  2.0537e-06  4.8643e-05  0:02:33  868

  iter  continuity  x-velocity  y-velocity      energy           k       omega     time/iter
   133  9.5890e-03  5.9149e-08  1.8720e-08  2.8655e-07  2.0277e-06  4.7207e-05  0:02:33  867
   134  9.1166e-03  5.8714e-08  1.8441e-08  2.7989e-07  1.9976e-06  4.3535e-05  0:02:33  866
   135  8.6198e-03  5.8172e-08  1.8147e-08  2.7320e-07  1.9663e-06  3.9884e-05  0:02:33  865
   136  8.1308e-03  5.7540e-08  1.7853e-08  2.6634e-07  1.9234e-06  3.6582e-05  0:02:32  864
   137  7.6363e-03  5.6786e-08  1.7522e-08  2.5984e-07  1.8893e-06  3.3564e-05  0:02:33  863
   138  7.1752e-03  5.5973e-08  1.7204e-08  2.5348e-07  1.8457e-06  3.0751e-05  0:02:33  862
   139  6.7036e-03  5.5034e-08  1.6878e-08  2.4673e-07  1.8062e-06  2.8315e-05  0:02:34  861
   140  6.2414e-03  5.4063e-08  1.6557e-08  2.4024e-07  1.7570e-06  2.7801e-05  0:02:33  860
   141  6.0213e-03  5.2948e-08  1.6245e-08  2.3420e-07  1.7151e-06  3.0228e-05  0:02:33  859
   142  6.0668e-03  5.1821e-08  1.5940e-08  2.2902e-07  1.6687e-06  3.2560e-05  0:02:33  858
   143  6.2203e-03  5.0581e-08  1.5643e-08  2.2374e-07  1.6306e-06  3.4692e-05  0:02:34  857

  iter  continuity  x-velocity  y-velocity      energy           k       omega     time/iter
   144  6.4242e-03  4.9331e-08  1.5393e-08  2.1863e-07  1.5788e-06  3.6647e-05  0:02:36  856
   145  6.5969e-03  4.7966e-08  1.5131e-08  2.1335e-07  1.5301e-06  3.8441e-05  0:02:37  855
   146  6.8044e-03  4.6564e-08  1.4883e-08  2.0865e-07  1.4832e-06  4.0134e-05  0:02:38  854
   147  6.9659e-03  4.5136e-08  1.4666e-08  2.0426e-07  1.4427e-06  4.2058e-05  0:02:40  853
   148  7.1003e-03  4.3711e-08  1.4468e-08  2.0019e-07  1.3939e-06  4.3571e-05  0:02:42  852
   149  7.2027e-03  4.2214e-08  1.4246e-08  1.9676e-07  1.3457e-06  4.4798e-05  0:02:43  851
   150  7.2696e-03  4.0764e-08  1.4043e-08  1.9242e-07  1.3022e-06  4.4599e-05  0:02:45  850
   151  7.3162e-03  3.9461e-08  1.3849e-08  1.8897e-07  1.2593e-06  4.6243e-05  0:02:46  849
   152  7.3557e-03  3.8238e-08  1.3626e-08  1.8556e-07  1.2177e-06  4.7043e-05  0:02:47  848
   153  7.3641e-03  3.7112e-08  1.3422e-08  1.8245e-07  1.1780e-06  4.7531e-05  0:02:48  847
   154  7.3364e-03  3.6021e-08  1.3223e-08  1.7979e-07  1.1406e-06  4.8343e-05  0:02:49  846

  iter  continuity  x-velocity  y-velocity      energy           k       omega     time/iter
   155  7.3147e-03  3.5088e-08  1.3010e-08  1.7694e-07  1.1017e-06  4.8035e-05  0:02:49  845
   156  7.2429e-03  3.4240e-08  1.2802e-08  1.7399e-07  1.0654e-06  4.8218e-05  0:02:50  844
   157  7.1927e-03  3.3451e-08  1.2598e-08  1.7143e-07  1.0334e-06  4.8763e-05  0:02:50  843
   158  7.0696e-03  3.2807e-08  1.2402e-08  1.6949e-07  9.9734e-07  4.8048e-05  0:02:50  842
   159  6.9433e-03  3.2229e-08  1.2208e-08  1.6716e-07  9.6368e-07  4.7820e-05  0:02:52  841
   160  6.8258e-03  3.1708e-08  1.2021e-08  1.6529e-07  9.3459e-07  4.7515e-05  0:02:51  840
   161  6.6767e-03  3.1249e-08  1.1850e-08  1.6322e-07  9.0424e-07  4.7070e-05  0:02:51  839
   162  6.5215e-03  3.0793e-08  1.1669e-08  1.6128e-07  8.7887e-07  4.6529e-05  0:02:51  838
   163  6.3227e-03  3.0386e-08  1.1494e-08  1.5931e-07  8.5299e-07  4.5886e-05  0:02:50  837
   164  6.0971e-03  2.9954e-08  1.1323e-08  1.5765e-07  8.2899e-07  4.5173e-05  0:02:50  836
   165  5.8438e-03  2.9557e-08  1.1152e-08  1.5575e-07  8.0795e-07  4.3975e-05  0:02:50  835

  iter  continuity  x-velocity  y-velocity      energy           k       omega     time/iter
   166  5.5926e-03  2.9145e-08  1.1000e-08  1.5405e-07  7.9077e-07  4.3321e-05  0:03:06  834
   167  5.3550e-03  2.8736e-08  1.0867e-08  1.5245e-07  7.7431e-07  4.2605e-05  0:03:13  833
   168  5.1150e-03  2.8354e-08  1.0733e-08  1.5060e-07  7.5833e-07  4.1775e-05  0:03:10  832
   169  4.9081e-03  2.7941e-08  1.0623e-08  1.4935e-07  7.4433e-07  4.1317e-05  0:03:05  831
   170  4.7080e-03  2.7537e-08  1.0511e-08  1.4773e-07  7.2861e-07  3.9786e-05  0:03:01  830
   171  4.5276e-03  2.7158e-08  1.0397e-08  1.4608e-07  7.1767e-07  3.8843e-05  0:02:59  829
   172  4.3475e-03  2.6775e-08  1.0292e-08  1.4452e-07  7.0703e-07  3.8312e-05  0:02:57  828
   173  4.1736e-03  2.6391e-08  1.0199e-08  1.4322e-07  6.9458e-07  3.7420e-05  0:02:57  827
   174  4.0102e-03  2.6020e-08  1.0100e-08  1.4220e-07  6.8378e-07  3.6439e-05  0:02:56  826
   175  3.8393e-03  2.5655e-08  1.0001e-08  1.4078e-07  6.7562e-07  3.5117e-05  0:02:55  825
   176  3.6649e-03  2.5312e-08  9.9004e-09  1.3920e-07  6.6665e-07  3.3947e-05  0:02:54  824

  iter  continuity  x-velocity  y-velocity      energy           k       omega     time/iter
   177  3.4845e-03  2.4986e-08  9.7954e-09  1.3759e-07  6.5827e-07  3.3064e-05  0:02:55  823
   178  3.3065e-03  2.4671e-08  9.6867e-09  1.3582e-07  6.5297e-07  3.2288e-05  0:02:55  822
   179  3.1354e-03  2.4344e-08  9.5818e-09  1.3428e-07  6.4596e-07  3.1382e-05  0:02:55  821
   180  2.9719e-03  2.4029e-08  9.4757e-09  1.3245e-07  6.4062e-07  3.0517e-05  0:02:57  820
   181  2.8130e-03  2.3694e-08  9.3655e-09  1.3076e-07  6.3479e-07  2.9709e-05  0:02:57  819
   182  2.6618e-03  2.3348e-08  9.2618e-09  1.2879e-07  6.2859e-07  2.8900e-05  0:02:56  818
   183  2.5137e-03  2.2982e-08  9.1441e-09  1.2699e-07  6.2231e-07  2.8257e-05  0:02:57  817
   184  2.3706e-03  2.2603e-08  9.0149e-09  1.2533e-07  6.1678e-07  2.7578e-05  0:02:56  816
   185  2.2342e-03  2.2229e-08  8.8848e-09  1.2352e-07  6.0948e-07  2.6941e-05  0:02:55  815
   186  2.1080e-03  2.1855e-08  8.7499e-09  1.2165e-07  6.0219e-07  2.6339e-05  0:02:55  814
   187  1.9875e-03  2.1478e-08  8.6122e-09  1.1982e-07  5.9708e-07  2.5860e-05  0:02:54  813

  iter  continuity  x-velocity  y-velocity      energy           k       omega     time/iter
   188  1.8697e-03  2.1070e-08  8.4696e-09  1.1802e-07  5.8922e-07  2.5602e-05  0:02:51  812
   189  1.7605e-03  2.0673e-08  8.3241e-09  1.1631e-07  5.8025e-07  2.5944e-05  0:02:50  811
   190  1.6843e-03  2.0276e-08  8.1691e-09  1.1453e-07  5.7335e-07  2.6304e-05  0:02:48  810
   191  1.6388e-03  1.9888e-08  8.0178e-09  1.1298e-07  5.6476e-07  2.6624e-05  0:02:47  809
   192  1.6121e-03  1.9517e-08  7.8601e-09  1.1150e-07  5.5721e-07  2.6904e-05  0:02:48  808
   193  1.5869e-03  1.9153e-08  7.7019e-09  1.0995e-07  5.5047e-07  2.7125e-05  0:02:47  807
   194  1.5544e-03  1.8798e-08  7.5415e-09  1.0845e-07  5.4363e-07  2.7300e-05  0:02:46  806
   195  1.5214e-03  1.8457e-08  7.3854e-09  1.0707e-07  5.3566e-07  2.7401e-05  0:02:45  805
   196  1.4854e-03  1.8124e-08  7.2360e-09  1.0583e-07  5.2857e-07  2.7548e-05  0:02:44  804
   197  1.4450e-03  1.7794e-08  7.0880e-09  1.0472e-07  5.1912e-07  2.7563e-05  0:02:44  803
   198  1.4064e-03  1.7489e-08  6.9435e-09  1.0349e-07  5.1127e-07  2.7630e-05  0:02:44  802

  iter  continuity  x-velocity  y-velocity      energy           k       omega     time/iter
   199  1.3669e-03  1.7188e-08  6.8021e-09  1.0241e-07  5.0009e-07  2.7569e-05  0:02:43  801
   200  1.3225e-03  1.6920e-08  6.6667e-09  1.0114e-07  4.9167e-07  2.7524e-05  0:02:43  800
   201  1.2723e-03  1.6635e-08  6.5379e-09  1.0009e-07  4.8298e-07  2.7443e-05  0:02:43  799
   202  1.2230e-03  1.6359e-08  6.4146e-09  9.9126e-08  4.7282e-07  2.7333e-05  0:02:43  798
   203  1.1745e-03  1.6099e-08  6.2966e-09  9.8017e-08  4.6377e-07  2.7146e-05  0:02:42  797
   204  1.1280e-03  1.5842e-08  6.1872e-09  9.7144e-08  4.5282e-07  2.7061e-05  0:02:42  796
   205  1.0815e-03  1.5603e-08  6.0778e-09  9.6160e-08  4.4324e-07  2.6874e-05  0:02:42  795
   206  1.0353e-03  1.5368e-08  5.9720e-09  9.5387e-08  4.3315e-07  2.6661e-05  0:02:41  794
   207  9.8796e-04  1.5135e-08  5.8692e-09  9.4591e-08  4.2366e-07  2.6402e-05  0:02:42  793
   208  9.4288e-04  1.4903e-08  5.7711e-09  9.3998e-08  4.1482e-07  2.6240e-05  0:02:42  792
   209  9.0265e-04  1.4671e-08  5.6765e-09  9.3331e-08  4.0334e-07  2.5968e-05  0:02:42  791

  iter  continuity  x-velocity  y-velocity      energy           k       omega     time/iter
   210  8.7209e-04  1.4452e-08  5.5874e-09  9.2427e-08  3.9328e-07  2.5701e-05  0:02:42  790
   211  8.4508e-04  1.4231e-08  5.5031e-09  9.1830e-08  3.8495e-07  2.5473e-05  0:02:41  789
   212  8.2373e-04  1.4004e-08  5.4207e-09  9.1077e-08  3.7715e-07  2.5344e-05  0:02:41  788
   213  8.2682e-04  1.3771e-08  5.3417e-09  9.0502e-08  3.6763e-07  2.5547e-05  0:02:40  787
   214  8.4991e-04  1.3546e-08  5.2637e-09  8.9738e-08  3.5991e-07  2.5777e-05  0:02:40  786
   215  8.7583e-04  1.3312e-08  5.1868e-09  8.9142e-08  3.5192e-07  2.6015e-05  0:02:39  785
   216  9.0054e-04  1.3081e-08  5.1145e-09  8.8657e-08  3.4416e-07  2.6283e-05  0:02:39  784
   217  9.2693e-04  1.2847e-08  5.0376e-09  8.8080e-08  3.3768e-07  2.6509e-05  0:02:39  783
   218  9.5427e-04  1.2605e-08  4.9644e-09  8.7468e-08  3.3065e-07  2.6613e-05  0:02:38  782
   219  9.8143e-04  1.2360e-08  4.8925e-09  8.7025e-08  3.2309e-07  2.6935e-05  0:02:39  781
   220  1.0071e-03  1.2124e-08  4.8296e-09  8.6739e-08  3.1684e-07  2.7220e-05  0:02:40  780

  iter  continuity  x-velocity  y-velocity      energy           k       omega     time/iter
   221  1.0301e-03  1.1881e-08  4.7639e-09  8.6351e-08  3.1040e-07  2.7312e-05  0:02:41  779
   222  1.0510e-03  1.1633e-08  4.6986e-09  8.5941e-08  3.0292e-07  2.7492e-05  0:02:42  778
   223  1.0700e-03  1.1396e-08  4.6326e-09  8.5472e-08  2.9623e-07  2.7669e-05  0:02:41  777
   224  1.0889e-03  1.1151e-08  4.5642e-09  8.4690e-08  2.8953e-07  2.7469e-05  0:02:40  776
   225  1.1050e-03  1.0918e-08  4.4977e-09  8.4205e-08  2.8379e-07  2.7679e-05  0:02:40  775
   226  1.1182e-03  1.0669e-08  4.4297e-09  8.4013e-08  2.7798e-07  2.8196e-05  0:02:41  774
   227  1.1281e-03  1.0430e-08  4.3632e-09  8.3730e-08  2.7261e-07  2.8316e-05  0:02:40  773
   228  1.1372e-03  1.0192e-08  4.3003e-09  8.3336e-08  2.6750e-07  2.8084e-05  0:02:39  772
   229  1.1445e-03  9.9542e-09  4.2415e-09  8.3095e-08  2.6163e-07  2.8529e-05  0:02:39  771
   230  1.1483e-03  9.7271e-09  4.1812e-09  8.2784e-08  2.5608e-07  2.8587e-05  0:02:39  770
   231  1.1497e-03  9.5083e-09  4.1195e-09  8.2374e-08  2.5058e-07  2.8275e-05  0:02:40  769

  iter  continuity  x-velocity  y-velocity      energy           k       omega     time/iter
   232  1.1480e-03  9.2983e-09  4.0584e-09  8.2127e-08  2.4521e-07  2.8707e-05  0:02:40  768
   233  1.1437e-03  9.0956e-09  3.9997e-09  8.1781e-08  2.3992e-07  2.8388e-05  0:02:39  767
   234  1.1364e-03  8.8986e-09  3.9399e-09  8.1536e-08  2.3454e-07  2.8800e-05  0:02:39  766
   235  1.1259e-03  8.7134e-09  3.8815e-09  8.1345e-08  2.2962e-07  2.8771e-05  0:02:38  765
   236  1.1147e-03  8.5273e-09  3.8250e-09  8.1077e-08  2.2536e-07  2.8700e-05  0:02:38  764
   237  1.1029e-03  8.3409e-09  3.7715e-09  8.0878e-08  2.1987e-07  2.8641e-05  0:02:37  763
   238  1.0880e-03  8.1619e-09  3.7203e-09  8.0560e-08  2.1559e-07  2.8253e-05  0:02:36  762
   239  1.0721e-03  7.9972e-09  3.6665e-09  8.0370e-08  2.1246e-07  2.8634e-05  0:02:36  761
   240  1.0545e-03  7.8387e-09  3.6155e-09  8.0098e-08  2.0860e-07  2.8247e-05  0:02:36  760
   241  1.0346e-03  7.6967e-09  3.5640e-09  7.9967e-08  2.0456e-07  2.8599e-05  0:02:37  759
   242  1.0140e-03  7.5658e-09  3.5143e-09  7.9533e-08  2.0119e-07  2.8168e-05  0:02:36  758

  iter  continuity  x-velocity  y-velocity      energy           k       omega     time/iter
   243  9.9254e-04  7.4416e-09  3.4671e-09  7.9350e-08  1.9848e-07  2.8112e-05  0:02:36  757
   244  9.7189e-04  7.3209e-09  3.4213e-09  7.9081e-08  1.9547e-07  2.8086e-05  0:02:36  756
   245  9.5016e-04  7.2159e-09  3.3790e-09  7.9050e-08  1.9123e-07  2.8358e-05  0:02:36  755
   246  9.2865e-04  7.1235e-09  3.3317e-09  7.8895e-08  1.8763e-07  2.8174e-05  0:02:36  754
   247  9.0544e-04  7.0379e-09  3.2867e-09  7.8598e-08  1.8384e-07  2.7696e-05  0:02:36  753
   248  8.8174e-04  6.9647e-09  3.2400e-09  7.8482e-08  1.8045e-07  2.7887e-05  0:02:35  752
   249  8.5686e-04  6.8949e-09  3.1971e-09  7.8199e-08  1.7719e-07  2.7490e-05  0:02:35  751

>> Dividing domain into 40 partitions using Metis.
   Time = 0.0236681 seconds.
   Done.

>> 40 Stored Partitions:
   ----------------------------------------------------------------------
   Collective Partition Statistics:        Minimum   Maximum   Total     
   ----------------------------------------------------------------------
   Cell count                              3650      3715      147553    
   Mean cell count deviation               -1.1%     0.7%      
   Partition boundary cell count           51        268       7816      
   Partition boundary cell count ratio     1.4%      7.2%      5.3%      

   Face count                              7450      7794      299231    
   Mean face count deviation               -2.1%     2.5%      
   Partition boundary face count           63        358       5056      
   Partition boundary face count ratio     0.8%      4.7%      1.7%      

   Cell weights                            2e+04     4e+04     1e+06     
   Mean cell weight deviation              -36.0%    9.4%      

   Partition neighbor count                1         7         
   ----------------------------------------------------------------------
   Partition Method                        Metis                                
   Stored Partition Count                  40                                   
Done.

Adapting mesh...
done.
   250  3.2373e-02  1.4538e-07  3.2496e-08  2.3547e-07  5.4346e-07  1.4719e-01  0:03:08  750
   251  1.7185e-02  7.9325e-08  1.7911e-08  1.2883e-07  3.9502e-07  2.8562e-02  0:02:55  749
   252  1.0368e-02  4.7545e-08  1.1434e-08  1.0241e-07  2.9262e-07  7.1967e-03  0:02:44  748
   253  6.8194e-03  3.0798e-08  8.3730e-09  9.1777e-08  2.4714e-07  1.9704e-03  0:02:38  747

  iter  continuity  x-velocity  y-velocity      energy           k       omega     time/iter
   254  5.0897e-03  2.1438e-08  6.6088e-09  8.6296e-08  2.2019e-07  8.1617e-04  0:02:59  746
   255  4.1089e-03  1.5990e-08  5.5174e-09  8.3095e-08  2.0099e-07  4.3773e-04  0:02:49  745
   256  3.5089e-03  1.2760e-08  4.8674e-09  8.1035e-08  1.8738e-07  3.1729e-04  0:02:42  744
   257  3.0555e-03  1.0738e-08  4.4519e-09  7.9683e-08  1.7710e-07  2.9000e-04  0:02:41  743
   258  2.6846e-03  9.4290e-09  4.1627e-09  7.9097e-08  1.6741e-07  2.5768e-04  0:02:40  742
   259  2.3508e-03  8.5185e-09  3.9647e-09  7.8425e-08  1.5927e-07  2.2738e-04  0:02:41  741
   260  2.0656e-03  7.8713e-09  3.8059e-09  7.7712e-08  1.5225e-07  1.9747e-04  0:02:40  740
   261  1.8363e-03  7.4003e-09  3.6384e-09  7.7161e-08  1.4673e-07  1.6946e-04  0:02:41  739
   262  1.6481e-03  7.0304e-09  3.4836e-09  7.6699e-08  1.4196e-07  1.4658e-04  0:02:41  738
   263  1.4827e-03  6.7377e-09  3.3344e-09  7.6277e-08  1.3739e-07  1.3649e-04  0:02:41  737
   264  1.3444e-03  6.5009e-09  3.2108e-09  7.5884e-08  1.3386e-07  1.1499e-04  0:02:42  736

  iter  continuity  x-velocity  y-velocity      energy           k       omega     time/iter
   265  1.2308e-03  6.2990e-09  3.1082e-09  7.5510e-08  1.3057e-07  1.0127e-04  0:02:42  735
   266  1.1346e-03  6.1341e-09  3.0150e-09  7.5188e-08  1.2796e-07  9.9117e-05  0:02:40  734
   267  1.0537e-03  5.9968e-09  2.9363e-09  7.4927e-08  1.2558e-07  8.9318e-05  0:02:39  733
   268  9.8256e-04  5.8775e-09  2.8641e-09  7.4613e-08  1.2264e-07  8.6095e-05  0:02:38  732
   269  9.1798e-04  5.7776e-09  2.7979e-09  7.4298e-08  1.2071e-07  9.1243e-05  0:02:38  731
   270  8.6067e-04  5.6839e-09  2.7411e-09  7.4099e-08  1.1950e-07  8.3203e-05  0:02:37  730
   271  8.0795e-04  5.6065e-09  2.6914e-09  7.3846e-08  1.1756e-07  8.1219e-05  0:02:37  729
   272  7.5973e-04  5.5280e-09  2.6421e-09  7.3721e-08  1.1635e-07  7.7966e-05  0:02:36  728
   273  7.1751e-04  5.4597e-09  2.6018e-09  7.3449e-08  1.1495e-07  8.0773e-05  0:02:37  727
   274  6.7665e-04  5.3909e-09  2.5591e-09  7.3247e-08  1.1349e-07  7.8608e-05  0:02:37  726
   275  6.3840e-04  5.3293e-09  2.5191e-09  7.3054e-08  1.1189e-07  7.8360e-05  0:02:36  725

  iter  continuity  x-velocity  y-velocity      energy           k       omega     time/iter
   276  6.0332e-04  5.2684e-09  2.4818e-09  7.2869e-08  1.1064e-07  7.7511e-05  0:03:26  724
   277  5.7181e-04  5.2025e-09  2.4472e-09  7.2640e-08  1.0971e-07  8.5435e-05  0:03:15  723
   278  5.4144e-04  5.1358e-09  2.4152e-09  7.2500e-08  1.0851e-07  7.6145e-05  0:03:07  722
   279  5.1303e-04  5.0732e-09  2.3831e-09  7.2244e-08  1.0753e-07  7.6766e-05  0:03:00  721
   280  4.8525e-04  5.0082e-09  2.3523e-09  7.2072e-08  1.0672e-07  7.5064e-05  0:02:54  720
   281  4.5966e-04  4.9462e-09  2.3195e-09  7.1842e-08  1.0597e-07  7.1675e-05  0:02:50  719
   282  4.3562e-04  4.8854e-09  2.2845e-09  7.1703e-08  1.0528e-07  7.2471e-05  0:02:46  718
   283  4.1625e-04  4.8263e-09  2.2545e-09  7.1545e-08  1.0446e-07  7.4439e-05  0:02:43  717
   284  4.0277e-04  4.7775e-09  2.2262e-09  7.1298e-08  1.0391e-07  6.6892e-05  0:02:40  716
   285  3.9114e-04  4.7241e-09  2.1984e-09  7.1094e-08  1.0345e-07  6.3119e-05  0:02:38  715
   286  3.7709e-04  4.6695e-09  2.1674e-09  7.0924e-08  1.0282e-07  6.0836e-05  0:02:38  714

  iter  continuity  x-velocity  y-velocity      energy           k       omega     time/iter
   287  3.6482e-04  4.6207e-09  2.1379e-09  7.0722e-08  1.0241e-07  5.7784e-05  0:02:36  713
   288  3.5255e-04  4.5712e-09  2.1091e-09  7.0524e-08  1.0195e-07  5.4882e-05  0:02:35  712
   289  3.3963e-04  4.5246e-09  2.0816e-09  7.0364e-08  1.0161e-07  5.1901e-05  0:02:35  711
   290  3.2701e-04  4.4787e-09  2.0566e-09  7.0183e-08  1.0145e-07  5.0241e-05  0:02:34  710
   291  3.1283e-04  4.4394e-09  2.0349e-09  7.0005e-08  1.0104e-07  4.6149e-05  0:02:34  709
   292  2.9985e-04  4.3939e-09  2.0094e-09  6.9790e-08  1.0062e-07  4.4446e-05  0:02:33  708
   293  2.8649e-04  4.3519e-09  1.9872e-09  6.9655e-08  1.0011e-07  4.7872e-05  0:02:33  707
   294  2.7385e-04  4.3071e-09  1.9687e-09  6.9526e-08  9.9657e-08  4.2020e-05  0:02:33  706
   295  2.6280e-04  4.2614e-09  1.9491e-09  6.9318e-08  9.9272e-08  3.8937e-05  0:02:34  705
   296  2.5355e-04  4.2228e-09  1.9320e-09  6.9172e-08  9.8646e-08  4.0163e-05  0:02:33  704
   297  2.4651e-04  4.1777e-09  1.9113e-09  6.9004e-08  9.8195e-08  3.7137e-05  0:02:33  703

  iter  continuity  x-velocity  y-velocity      energy           k       omega     time/iter
   298  2.4177e-04  4.1370e-09  1.8915e-09  6.8852e-08  9.7568e-08  3.2549e-05  0:02:32  702
   299  2.4039e-04  4.0967e-09  1.8741e-09  6.8642e-08  9.6871e-08  3.0857e-05  0:02:32  701
   300  2.4032e-04  4.0571e-09  1.8597e-09  6.8538e-08  9.5924e-08  2.9531e-05  0:02:32  700
   301  2.4004e-04  4.0183e-09  1.8461e-09  6.8454e-08  9.5350e-08  2.7758e-05  0:02:32  699
   302  2.3959e-04  3.9860e-09  1.8301e-09  6.8287e-08  9.4880e-08  2.6371e-05  0:02:32  698
   303  2.3888e-04  3.9578e-09  1.8182e-09  6.8102e-08  9.4603e-08  2.5219e-05  0:02:32  697
   304  2.3747e-04  3.9382e-09  1.8058e-09  6.7999e-08  9.3402e-08  2.4230e-05  0:02:31  696
   305  2.3550e-04  3.9180e-09  1.7947e-09  6.7795e-08  9.3768e-08  2.3356e-05  0:02:32  695
   306  2.3330e-04  3.9018e-09  1.7827e-09  6.7634e-08  9.3395e-08  2.2557e-05  0:02:33  694
   307  2.3081e-04  3.8813e-09  1.7713e-09  6.7555e-08  9.3399e-08  2.1828e-05  0:02:32  693
   308  2.2824e-04  3.8739e-09  1.7618e-09  6.7397e-08  9.2996e-08  2.1164e-05  0:02:32  692

  iter  continuity  x-velocity  y-velocity      energy           k       omega     time/iter
   309  2.2567e-04  3.8564e-09  1.7509e-09  6.7265e-08  9.2508e-08  2.0561e-05  0:02:32  691
   310  2.2287e-04  3.8387e-09  1.7395e-09  6.7077e-08  9.1962e-08  2.0008e-05  0:02:32  690
   311  2.1972e-04  3.8208e-09  1.7293e-09  6.6915e-08  9.1472e-08  1.9506e-05  0:02:32  689
   312  2.1590e-04  3.8041e-09  1.7199e-09  6.6765e-08  9.0978e-08  1.9049e-05  0:02:31  688
   313  2.1222e-04  3.7889e-09  1.7116e-09  6.6618e-08  9.0407e-08  1.8636e-05  0:02:31  687
   314  2.1012e-04  3.7669e-09  1.7075e-09  6.6492e-08  8.9969e-08  1.8179e-05  0:02:30  686
   315  2.0678e-04  3.7466e-09  1.7022e-09  6.6348e-08  8.9407e-08  1.7908e-05  0:02:30  685
   316  2.0388e-04  3.7226e-09  1.6954e-09  6.6161e-08  8.8649e-08  1.7609e-05  0:02:30  684
   317  2.0138e-04  3.6967e-09  1.6872e-09  6.5980e-08  8.7828e-08  1.7314e-05  0:02:30  683
   318  1.9900e-04  3.6722e-09  1.6796e-09  6.5840e-08  8.7108e-08  1.7037e-05  0:02:30  682
   319  1.9692e-04  3.6470e-09  1.6717e-09  6.5708e-08  8.6589e-08  1.6774e-05  0:02:30  681

  iter  continuity  x-velocity  y-velocity      energy           k       omega     time/iter
   320  1.9536e-04  3.6230e-09  1.6644e-09  6.5532e-08  8.5804e-08  1.6542e-05  0:02:30  680
   321  1.9435e-04  3.5967e-09  1.6559e-09  6.5388e-08  8.5219e-08  1.6335e-05  0:02:29  679
   322  1.9309e-04  3.5727e-09  1.6481e-09  6.5214e-08  8.4365e-08  1.6223e-05  0:02:29  678
   323  1.9227e-04  3.5416e-09  1.6380e-09  6.5051e-08  8.3629e-08  1.6006e-05  0:02:29  677
   324  1.9227e-04  3.5137e-09  1.6277e-09  6.4903e-08  8.2829e-08  1.5823e-05  0:02:30  676
   325  1.9236e-04  3.4857e-09  1.6172e-09  6.4740e-08  8.1979e-08  1.5752e-05  0:02:30  675
   326  1.9309e-04  3.4536e-09  1.6044e-09  6.4618e-08  8.1214e-08  1.5618e-05  0:02:29  674
   327  1.9317e-04  3.4247e-09  1.5915e-09  6.4463e-08  8.0364e-08  1.5773e-05  0:02:29  673
   328  1.9350e-04  3.3929e-09  1.5780e-09  6.4337e-08  7.9569e-08  1.5548e-05  0:02:29  672
   329  1.9428e-04  3.3602e-09  1.5637e-09  6.4199e-08  7.8721e-08  1.5309e-05  0:02:29  671
   330  1.9451e-04  3.3276e-09  1.5486e-09  6.4068e-08  7.7828e-08  1.5229e-05  0:02:28  670

  iter  continuity  x-velocity  y-velocity      energy           k       omega     time/iter
   331  1.9482e-04  3.2959e-09  1.5332e-09  6.3934e-08  7.6862e-08  1.5163e-05  0:02:28  669
   332  1.9532e-04  3.2626e-09  1.5176e-09  6.3802e-08  7.6041e-08  1.5131e-05  0:02:28  668
   333  1.9589e-04  3.2325e-09  1.5032e-09  6.3696e-08  7.5071e-08  1.7011e-05  0:02:27  667
   334  1.9686e-04  3.2010e-09  1.4886e-09  6.3563e-08  7.4142e-08  2.0984e-05  0:02:27  666
   335  1.9628e-04  3.1687e-09  1.4724e-09  6.3449e-08  7.3124e-08  1.7336e-05  0:02:27  665
   336  1.9612e-04  3.1352e-09  1.4572e-09  6.3355e-08  7.2238e-08  1.5622e-05  0:02:27  664
   337  1.9581e-04  3.1028e-09  1.4420e-09  6.3182e-08  7.1271e-08  1.4948e-05  0:02:27  663
   338  1.9540e-04  3.0689e-09  1.4238e-09  6.3059e-08  7.0256e-08  1.5125e-05  0:02:26  662
   339  1.9521e-04  3.0344e-09  1.4051e-09  6.2991e-08  6.9394e-08  1.7418e-05  0:02:26  661
   340  1.9472e-04  3.0025e-09  1.3873e-09  6.2871e-08  6.8546e-08  1.9004e-05  0:02:25  660
   341  1.9426e-04  2.9701e-09  1.3698e-09  6.2773e-08  6.7606e-08  1.5652e-05  0:02:26  659

  iter  continuity  x-velocity  y-velocity      energy           k       omega     time/iter
   342  1.9339e-04  2.9366e-09  1.3527e-09  6.2663e-08  6.6690e-08  1.4786e-05  0:02:26  658
   343  1.9284e-04  2.9027e-09  1.3364e-09  6.2563e-08  6.5862e-08  1.4620e-05  0:02:25  657
   344  1.9235e-04  2.8706e-09  1.3211e-09  6.2392e-08  6.5062e-08  1.4868e-05  0:02:25  656
   345  1.9152e-04  2.8387e-09  1.3057e-09  6.2271e-08  6.4190e-08  1.5047e-05  0:02:25  655
   346  1.9061e-04  2.8050e-09  1.2894e-09  6.2244e-08  6.3414e-08  1.4585e-05  0:02:25  654
   347  1.8946e-04  2.7735e-09  1.2739e-09  6.2127e-08  6.2628e-08  1.4350e-05  0:02:26  653
   348  1.8815e-04  2.7414e-09  1.2580e-09  6.2031e-08  6.1862e-08  1.4256e-05  0:02:26  652
   349  1.8674e-04  2.7097e-09  1.2420e-09  6.1933e-08  6.1077e-08  1.4204e-05  0:02:25  651
   350  1.8533e-04  2.6779e-09  1.2246e-09  6.1823e-08  6.0394e-08  1.4170e-05  0:02:25  650
   351  1.8409e-04  2.6466e-09  1.2075e-09  6.1695e-08  5.9636e-08  1.4143e-05  0:02:26  649
   352  1.8307e-04  2.6136e-09  1.1902e-09  6.1590e-08  5.8966e-08  1.4122e-05  0:02:25  648

  iter  continuity  x-velocity  y-velocity      energy           k       omega     time/iter
   353  1.8207e-04  2.5818e-09  1.1740e-09  6.1487e-08  5.8386e-08  1.4100e-05  0:02:24  647
   354  1.8055e-04  2.5535e-09  1.1594e-09  6.1371e-08  5.7720e-08  1.4073e-05  0:02:24  646
   355  1.7892e-04  2.5220e-09  1.1441e-09  6.1316e-08  5.7038e-08  1.4052e-05  0:02:23  645
   356  1.7763e-04  2.4902e-09  1.1292e-09  6.1191e-08  5.6454e-08  1.4032e-05  0:02:22  644
   357  1.7685e-04  2.4601e-09  1.1149e-09  6.1087e-08  5.5814e-08  1.4013e-05  0:02:22  643
   358  1.7611e-04  2.4288e-09  1.1003e-09  6.0982e-08  5.5169e-08  1.3996e-05  0:02:21  642
   359  1.7525e-04  2.3979e-09  1.0858e-09  6.0882e-08  5.4543e-08  1.3979e-05  0:02:21  641
   360  1.7410e-04  2.3674e-09  1.0715e-09  6.0788e-08  5.3887e-08  1.3959e-05  0:02:21  640
   361  1.7275e-04  2.3373e-09  1.0577e-09  6.0685e-08  5.3264e-08  1.3943e-05  0:02:20  639
   362  1.7121e-04  2.3081e-09  1.0443e-09  6.0604e-08  5.2628e-08  1.3928e-05  0:02:19  638
   363  1.6977e-04  2.2786e-09  1.0313e-09  6.0518e-08  5.2000e-08  1.3912e-05  0:02:19  637

  iter  continuity  x-velocity  y-velocity      energy           k       omega     time/iter
   364  1.6845e-04  2.2492e-09  1.0182e-09  6.0481e-08  5.1407e-08  1.3899e-05  0:02:19  636
   365  1.6710e-04  2.2199e-09  1.0056e-09  6.0391e-08  5.0865e-08  1.3881e-05  0:02:18  635
   366  1.6602e-04  2.1923e-09  9.9371e-10  6.0308e-08  5.0319e-08  1.3864e-05  0:02:18  634
   367  1.6499e-04  2.1653e-09  9.8158e-10  6.0160e-08  4.9768e-08  1.3853e-05  0:02:17  633
   368  1.6373e-04  2.1375e-09  9.6929e-10  6.0056e-08  4.9249e-08  1.3839e-05  0:02:18  632
   369  1.6249e-04  2.1102e-09  9.5708e-10  5.9970e-08  4.8753e-08  1.3826e-05  0:02:17  631
   370  1.6107e-04  2.0840e-09  9.4442e-10  5.9885e-08  4.8266e-08  1.3814e-05  0:02:17  630
   371  1.5969e-04  2.0576e-09  9.3207e-10  5.9809e-08  4.7781e-08  1.3802e-05  0:02:16  629
   372  1.5804e-04  2.0308e-09  9.1982e-10  5.9752e-08  4.7259e-08  1.3792e-05  0:02:16  628
   373  1.5653e-04  2.0043e-09  9.0813e-10  5.9683e-08  4.6723e-08  1.3778e-05  0:02:16  627
   374  1.5494e-04  1.9785e-09  8.9685e-10  5.9620e-08  4.6182e-08  1.3766e-05  0:02:16  626

  iter  continuity  x-velocity  y-velocity      energy           k       omega     time/iter
   375  1.5314e-04  1.9538e-09  8.8583e-10  5.9496e-08  4.5638e-08  1.3756e-05  0:02:15  625
   376  1.5132e-04  1.9297e-09  8.7536e-10  5.9404e-08  4.5107e-08  1.3744e-05  0:02:15  624
   377  1.4944e-04  1.9045e-09  8.6504e-10  5.9361e-08  4.4616e-08  1.3735e-05  0:02:14  623
   378  1.4761e-04  1.8803e-09  8.5505e-10  5.9306e-08  4.4171e-08  1.3725e-05  0:02:14  622
   379  1.4571e-04  1.8563e-09  8.4538e-10  5.9228e-08  4.3719e-08  1.3714e-05  0:02:14  621
   380  1.4379e-04  1.8326e-09  8.3562e-10  5.9162e-08  4.3263e-08  1.3704e-05  0:02:14  620
   381  1.4175e-04  1.8106e-09  8.2607e-10  5.9121e-08  4.2808e-08  1.3695e-05  0:02:13  619
   382  1.3973e-04  1.7880e-09  8.1686e-10  5.9059e-08  4.2290e-08  1.3686e-05  0:02:14  618
   383  1.3764e-04  1.7670e-09  8.0775e-10  5.8996e-08  4.1785e-08  1.3678e-05  0:02:14  617
   384  1.3547e-04  1.7458e-09  7.9932e-10  5.8931e-08  4.1272e-08  1.6212e-05  0:02:13  616
   385  1.3338e-04  1.7245e-09  7.9085e-10  5.8858e-08  4.0803e-08  1.4690e-05  0:02:13  615

  iter  continuity  x-velocity  y-velocity      energy           k       omega     time/iter
   386  1.3120e-04  1.7032e-09  7.8240e-10  5.8765e-08  4.0344e-08  1.3933e-05  0:02:13  614
   387  1.2893e-04  1.6824e-09  7.7392e-10  5.8678e-08  3.9880e-08  1.5231e-05  0:02:13  613
   388  1.2623e-04  1.6621e-09  7.6563e-10  5.8615e-08  3.9398e-08  1.4646e-05  0:02:13  612
   389  1.2372e-04  1.6428e-09  7.5706e-10  5.8554e-08  3.8930e-08  1.3857e-05  0:02:12  611
   390  1.2166e-04  1.6228e-09  7.4976e-10  5.8475e-08  3.8496e-08  1.3750e-05  0:02:12  610
   391  1.1959e-04  1.6037e-09  7.4201e-10  5.8410e-08  3.8062e-08  1.3708e-05  0:02:12  609
   392  1.1750e-04  1.5859e-09  7.3462e-10  5.8343e-08  3.7630e-08  1.3667e-05  0:02:11  608
   393  1.1539e-04  1.5672e-09  7.2735e-10  5.8278e-08  3.7189e-08  2.2423e-05  0:02:12  607
   394  1.1324e-04  1.5482e-09  7.1978e-10  5.8233e-08  3.6738e-08  1.6111e-05  0:02:11  606
   395  1.1118e-04  1.5306e-09  7.1168e-10  5.8165e-08  3.6341e-08  7.1534e-05  0:02:11  605
   396  1.0903e-04  1.5121e-09  7.0362e-10  5.8085e-08  3.5925e-08  2.8415e-05  0:02:11  604

  iter  continuity  x-velocity  y-velocity      energy           k       omega     time/iter
   397  1.0704e-04  1.4942e-09  6.9606e-10  5.8002e-08  3.5517e-08  2.4705e-05  0:02:12  603
   398  1.0585e-04  1.4798e-09  6.8909e-10  5.8204e-08  3.5100e-08  1.6674e-05  0:02:12  602
   399  1.0291e-04  1.4653e-09  6.8246e-10  5.7862e-08  3.4683e-08  1.4440e-05  0:02:11  601
   400  1.0117e-04  1.4494e-09  6.7572e-10  5.7798e-08  3.4258e-08  1.3809e-05  0:02:11  600
   401  9.9301e-05  1.4331e-09  6.6899e-10  5.7745e-08  3.3829e-08  1.3635e-05  0:02:11  599
   402  9.7475e-05  1.4178e-09  6.6226e-10  5.7659e-08  3.3412e-08  1.3584e-05  0:02:10  598
   403  9.5701e-05  1.4024e-09  6.5551e-10  5.7582e-08  3.3016e-08  1.3568e-05  0:02:10  597
   404  9.3906e-05  1.3860e-09  6.4859e-10  5.7518e-08  3.2607e-08  1.3562e-05  0:02:10  596
   405  9.2209e-05  1.3698e-09  6.4188e-10  5.7451e-08  3.2246e-08  1.3555e-05  0:02:09  595
   406  9.0495e-05  1.3538e-09  6.3513e-10  5.7369e-08  3.1868e-08  1.3547e-05  0:02:09  594
   407  8.9833e-05  1.3384e-09  6.2866e-10  5.7649e-08  3.1539e-08  1.3542e-05  0:02:09  593

  iter  continuity  x-velocity  y-velocity      energy           k       omega     time/iter
   408  8.7318e-05  1.3243e-09  6.2231e-10  5.7272e-08  3.1195e-08  1.3541e-05  0:02:09  592
   409  8.5818e-05  1.3087e-09  6.1605e-10  5.7224e-08  3.0870e-08  1.3533e-05  0:02:09  591
   410  8.4375e-05  1.2933e-09  6.1004e-10  5.7191e-08  3.0555e-08  1.3526e-05  0:02:09  590
   411  8.3599e-05  1.2784e-09  6.0402e-10  5.7412e-08  3.0239e-08  1.3527e-05  0:02:09  589
   412  8.1658e-05  1.2648e-09  5.9823e-10  5.7076e-08  2.9905e-08  1.3523e-05  0:02:08  588
   413  8.0209e-05  1.2503e-09  5.9233e-10  5.7001e-08  2.9540e-08  1.3513e-05  0:02:08  587
   414  7.8800e-05  1.2372e-09  5.8656e-10  5.6930e-08  2.9203e-08  1.3508e-05  0:02:08  586
   415  7.7522e-05  1.2232e-09  5.8086e-10  5.6858e-08  2.8875e-08  1.5801e-05  0:02:07  585
   416  7.6265e-05  1.2094e-09  5.7496e-10  5.6784e-08  2.8485e-08  1.4405e-05  0:02:07  584
   417  7.5823e-05  1.1970e-09  5.6981e-10  5.7011e-08  2.8101e-08  1.3816e-05  0:02:07  583
   418  7.3763e-05  1.1851e-09  5.6450e-10  5.6680e-08  2.7729e-08  1.3692e-05  0:02:07  582

  iter  continuity  x-velocity  y-velocity      energy           k       omega     time/iter
   419  7.2771e-05  1.1720e-09  5.5889e-10  5.6608e-08  2.7410e-08  1.3828e-05  0:02:07  581
   420  7.1542e-05  1.1584e-09  5.5314e-10  5.6543e-08  2.7109e-08  1.4012e-05  0:02:07  580
   421  7.0189e-05  1.1453e-09  5.4774e-10  5.6510e-08  2.6798e-08  1.3834e-05  0:02:06  579
   422  6.9681e-05  1.1329e-09  5.4244e-10  5.6704e-08  2.6470e-08  1.3618e-05  0:02:06  578
   423  6.7790e-05  1.1209e-09  5.3743e-10  5.6390e-08  2.6153e-08  1.3515e-05  0:02:05  577
   424  6.6679e-05  1.1084e-09  5.3226e-10  5.6309e-08  2.5828e-08  1.3471e-05  0:02:06  576
   425  6.5577e-05  1.0971e-09  5.2730e-10  5.6232e-08  2.5517e-08  1.3458e-05  0:02:05  575
   426  6.4479e-05  1.0853e-09  5.2232e-10  5.6167e-08  2.5238e-08  1.3447e-05  0:02:05  574
   427  6.3467e-05  1.0731e-09  5.1734e-10  5.6105e-08  2.4982e-08  1.3443e-05  0:02:05  573
   428  6.2510e-05  1.0611e-09  5.1247e-10  5.6088e-08  2.4724e-08  1.3440e-05  0:02:05  572
   429  6.1558e-05  1.0499e-09  5.0771e-10  5.6016e-08  2.4473e-08  1.3438e-05  0:02:04  571

  iter  continuity  x-velocity  y-velocity      energy           k       omega     time/iter
   430  6.0728e-05  1.0387e-09  5.0305e-10  5.5974e-08  2.4214e-08  1.3443e-05  0:02:04  570
   431  5.9977e-05  1.0283e-09  4.9886e-10  5.5921e-08  2.3945e-08  1.3440e-05  0:02:04  569
   432  5.9192e-05  1.0183e-09  4.9443e-10  5.5862e-08  2.3680e-08  1.3431e-05  0:02:04  568
   433  5.8403e-05  1.0080e-09  4.8997e-10  5.5797e-08  2.3413e-08  1.3426e-05  0:02:04  567
   434  5.8785e-05  9.9831e-10  4.8558e-10  5.5995e-08  2.3183e-08  1.3423e-05  0:02:03  566
   435  5.8496e-05  9.8860e-10  4.8135e-10  5.6125e-08  2.2954e-08  1.3419e-05  0:02:03  565
   436  5.6472e-05  9.7956e-10  4.7729e-10  5.5678e-08  2.2706e-08  1.3427e-05  0:02:03  564
   437  5.5576e-05  9.6863e-10  4.7223e-10  5.5595e-08  2.2477e-08  1.3425e-05  0:02:04  563
   438  5.4754e-05  9.5798e-10  4.6753e-10  5.5531e-08  2.2211e-08  1.3417e-05  0:02:03  562
   439  5.3810e-05  9.4958e-10  4.6356e-10  5.5463e-08  2.1960e-08  1.3417e-05  0:02:03  561
   440  5.2967e-05  9.4078e-10  4.5963e-10  5.5396e-08  2.1712e-08  1.3410e-05  0:02:03  560

  iter  continuity  x-velocity  y-velocity      energy           k       omega     time/iter
   441  5.2079e-05  9.3134e-10  4.5554e-10  5.5330e-08  2.1521e-08  1.3408e-05  0:02:02  559
   442  5.1274e-05  9.2042e-10  4.5127e-10  5.5268e-08  2.1352e-08  1.3407e-05  0:02:03  558
   443  5.0649e-05  9.1036e-10  4.4717e-10  5.5211e-08  2.1148e-08  1.3404e-05  0:02:17  557
   444  5.0044e-05  9.0190e-10  4.4354e-10  5.5150e-08  2.0962e-08  1.3402e-05  0:02:16  556
   445  4.9454e-05  8.9289e-10  4.3991e-10  5.5091e-08  2.0834e-08  1.3401e-05  0:02:13  555
   446  4.8901e-05  8.8286e-10  4.3588e-10  5.5037e-08  2.0707e-08  1.3400e-05  0:02:11  554
   447  4.8325e-05  8.7339e-10  4.3201e-10  5.4992e-08  2.0573e-08  1.3400e-05  0:02:08  553
   448  4.7785e-05  8.6424e-10  4.2806e-10  5.4950e-08  2.0362e-08  1.3397e-05  0:02:07  552
   449  4.7117e-05  8.5699e-10  4.2411e-10  5.4893e-08  2.0168e-08  1.3401e-05  0:02:05  551
   450  4.8082e-05  8.4926e-10  4.2018e-10  5.5111e-08  2.0022e-08  1.3400e-05  0:02:04  550
   451  4.6661e-05  8.4136e-10  4.1643e-10  5.4812e-08  1.9869e-08  1.3391e-05  0:02:03  549

  iter  continuity  x-velocity  y-velocity      energy           k       omega     time/iter
   452  4.6286e-05  8.3265e-10  4.1226e-10  5.4760e-08  1.9714e-08  1.3389e-05  0:02:02  548
   453  4.5883e-05  8.2469e-10  4.0866e-10  5.4699e-08  1.9544e-08  1.3393e-05  0:02:02  547
   454  4.5437e-05  8.1607e-10  4.0468e-10  5.4637e-08  1.9361e-08  1.3392e-05  0:02:01  546
   455  4.4937e-05  8.0767e-10  4.0078e-10  5.4593e-08  1.9195e-08  1.3390e-05  0:02:00  545
   456  4.4545e-05  7.9945e-10  3.9701e-10  5.4517e-08  1.9034e-08  1.3385e-05  0:02:18  544
   457  4.4130e-05  7.9109e-10  3.9325e-10  5.4457e-08  1.8855e-08  1.3381e-05  0:02:14  543
   458  4.3696e-05  7.8357e-10  3.8980e-10  5.4396e-08  1.8675e-08  1.3380e-05  0:02:10  542
   459  4.3248e-05  7.7595e-10  3.8647e-10  5.4345e-08  1.8530e-08  1.3383e-05  0:02:08  541
   460  4.2827e-05  7.6733e-10  3.8290e-10  5.4281e-08  1.8400e-08  1.3384e-05  0:02:06  540
   461  4.2396e-05  7.5922e-10  3.7946e-10  5.4222e-08  1.8271e-08  1.3383e-05  0:02:04  539
   462  4.2013e-05  7.5134e-10  3.7595e-10  5.4169e-08  1.8166e-08  1.3381e-05  0:02:02  538

  iter  continuity  x-velocity  y-velocity      energy           k       omega     time/iter
   463  4.1627e-05  7.4335e-10  3.7257e-10  5.4116e-08  1.8055e-08  1.3382e-05  0:02:01  537
   464  4.1265e-05  7.3568e-10  3.6919e-10  5.4062e-08  1.7924e-08  1.3381e-05  0:02:01  536
   465  4.0959e-05  7.2872e-10  3.6609e-10  5.4008e-08  1.7780e-08  1.3381e-05  0:02:36  535
   466  4.1968e-05  7.2166e-10  3.6250e-10  5.4213e-08  1.7665e-08  1.3381e-05  0:02:28  534
   467  4.0680e-05  7.1502e-10  3.5924e-10  5.3913e-08  1.7532e-08  1.3377e-05  0:02:22  533
   468  4.0388e-05  7.0783e-10  3.5580e-10  5.3848e-08  1.7383e-08  1.3379e-05  0:02:17  532
   469  4.0117e-05  7.0089e-10  3.5249e-10  5.3789e-08  1.7240e-08  1.3378e-05  0:02:12  531
   470  3.9777e-05  6.9424e-10  3.4934e-10  5.3729e-08  1.7095e-08  1.3377e-05  0:02:08  530
   471  3.9393e-05  6.8760e-10  3.4627e-10  5.3668e-08  1.6993e-08  1.3376e-05  0:02:05  529
   472  4.0142e-05  6.8069e-10  3.4316e-10  5.3905e-08  1.6894e-08  1.3381e-05  0:02:03  528
   473  3.8745e-05  6.7458e-10  3.4043e-10  5.3588e-08  1.6769e-08  1.3377e-05  0:02:01  527

  iter  continuity  x-velocity  y-velocity      energy           k       omega     time/iter
   474  3.8471e-05  6.6790e-10  3.3717e-10  5.3516e-08  1.6649e-08  1.3373e-05  0:01:59  526
   475  3.8157e-05  6.6150e-10  3.3411e-10  5.3469e-08  1.6534e-08  1.3373e-05  0:01:58  525
   476  3.7766e-05  6.5511e-10  3.3111e-10  5.3415e-08  1.6421e-08  1.3373e-05  0:01:58  524
   477  3.8271e-05  6.4887e-10  3.2815e-10  5.3627e-08  1.6271e-08  1.3376e-05  0:01:57  523
   478  3.7275e-05  6.4447e-10  3.2598e-10  5.3339e-08  1.6135e-08  1.3367e-05  0:01:56  522
   479  3.7197e-05  6.3822e-10  3.2318e-10  5.3276e-08  1.5995e-08  1.3373e-05  0:01:55  521
   480  3.6921e-05  6.3253e-10  3.2050e-10  5.3220e-08  1.5869e-08  1.3372e-05  0:01:55  520
   481  3.6621e-05  6.2672e-10  3.1791e-10  5.3171e-08  1.5789e-08  1.3366e-05  0:01:54  519
   482  3.6223e-05  6.2058e-10  3.1495e-10  5.3124e-08  1.5663e-08  1.3364e-05  0:01:54  518
   483  3.5976e-05  6.1510e-10  3.1203e-10  5.3081e-08  1.5563e-08  1.3365e-05  0:01:53  517
   484  3.5662e-05  6.0948e-10  3.0897e-10  5.3034e-08  1.5463e-08  1.3366e-05  0:01:53  516

  iter  continuity  x-velocity  y-velocity      energy           k       omega     time/iter
   485  3.5174e-05  6.0405e-10  3.0594e-10  5.2974e-08  1.5375e-08  1.3373e-05  0:01:53  515
   486  3.4765e-05  5.9841e-10  3.0312e-10  5.2920e-08  1.5294e-08  1.3373e-05  0:01:54  514
   487  3.4294e-05  5.9298e-10  3.0052e-10  5.2868e-08  1.5204e-08  1.3369e-05  0:01:53  513
   488  3.3821e-05  5.8757e-10  2.9811e-10  5.2808e-08  1.5117e-08  1.3366e-05  0:01:52  512
   489  3.3322e-05  5.8231e-10  2.9568e-10  5.2750e-08  1.5034e-08  1.3364e-05  0:01:51  511
   490  3.2768e-05  5.7696e-10  2.9340e-10  5.2702e-08  1.4965e-08  1.3357e-05  0:01:51  510
   491  3.2222e-05  5.7181e-10  2.9111e-10  5.2639e-08  1.4877e-08  1.3361e-05  0:01:51  509
   492  3.1691e-05  5.6688e-10  2.8867e-10  5.2581e-08  1.4793e-08  1.3361e-05  0:01:50  508
   493  3.1162e-05  5.6202e-10  2.8629e-10  5.2532e-08  1.4730e-08  1.3360e-05  0:01:50  507
   494  3.0663e-05  5.5703e-10  2.8383e-10  5.2484e-08  1.4666e-08  1.3359e-05  0:01:50  506
   495  3.0134e-05  5.5216e-10  2.8142e-10  5.2435e-08  1.4600e-08  1.3358e-05  0:01:49  505

  iter  continuity  x-velocity  y-velocity      energy           k       omega     time/iter
   496  2.9670e-05  5.4737e-10  2.7902e-10  5.2386e-08  1.4531e-08  1.3358e-05  0:01:49  504
   497  2.9259e-05  5.4264e-10  2.7651e-10  5.2337e-08  1.4475e-08  1.3358e-05  0:01:49  503
   498  2.8857e-05  5.3789e-10  2.7413e-10  5.2290e-08  1.4414e-08  1.3361e-05  0:01:48  502
   499  2.8473e-05  5.3322e-10  2.7168e-10  5.2248e-08  1.4346e-08  1.3353e-05  0:01:49  501

>> Dividing domain into 40 partitions using Metis.
   Time = 0.0228889 seconds.
   Done.

>> 40 Stored Partitions:
   ----------------------------------------------------------------------
   Collective Partition Statistics:        Minimum   Maximum   Total     
   ----------------------------------------------------------------------
   Cell count                              3719      3784      150613    
   Mean cell count deviation               -1.2%     0.5%      
   Partition boundary cell count           49        277       7681      
   Partition boundary cell count ratio     1.3%      7.3%      5.1%      

   Face count                              7617      8007      305760    
   Mean face count deviation               -1.9%     3.1%      
   Partition boundary face count           64        360       4912      
   Partition boundary face count ratio     0.8%      4.7%      1.6%      

   Cell weights                            3e+04     4e+04     1e+06     
   Mean cell weight deviation              -23.6%    2.6%      

   Partition neighbor count                1         8         
   ----------------------------------------------------------------------
   Partition Method                        Metis                                
   Stored Partition Count                  40                                   
Done.

Adapting mesh...
done.
   500  1.9512e-03  2.5899e-09  1.2335e-09  9.0154e-08  2.0639e-08  1.6360e-05  0:02:09  500
   501  1.0423e-03  1.7149e-09  8.4151e-10  6.3077e-08  1.7696e-08  1.9912e-05  0:02:01  499
   502  6.1713e-04  1.2521e-09  6.2051e-10  5.6086e-08  1.6406e-08  2.1381e-05  0:01:54  498
   503  3.8883e-04  9.8530e-10  4.8517e-10  5.4322e-08  1.5852e-08  1.9951e-05  0:01:49  497
   504  2.9004e-04  8.2847e-10  4.1786e-10  5.3762e-08  1.5692e-08  1.7385e-05  0:01:47  496
   505  2.4177e-04  7.3243e-10  3.9500e-10  5.3536e-08  1.5602e-08  1.5304e-05  0:01:46  495
   506  2.2120e-04  6.7372e-10  3.6850e-10  5.3410e-08  1.5501e-08  1.4456e-05  0:01:45  494

  iter  continuity  x-velocity  y-velocity      energy           k       omega     time/iter
   507  2.0750e-04  6.3329e-10  3.4833e-10  5.3302e-08  1.5377e-08  1.4532e-05  0:01:44  493
   508  1.9060e-04  6.0420e-10  3.4004e-10  5.3196e-08  1.5244e-08  1.4481e-05  0:01:45  492
   509  1.7304e-04  5.8283e-10  3.3210e-10  5.3094e-08  1.5117e-08  1.4438e-05  0:01:44  491
   510  1.5546e-04  5.6712e-10  3.2436e-10  5.2996e-08  1.4964e-08  1.4424e-05  0:01:43  490
   511  1.3780e-04  5.5515e-10  3.1539e-10  5.2905e-08  1.4841e-08  1.4389e-05  0:01:42  489
   512  1.2091e-04  5.4473e-10  3.0578e-10  5.2828e-08  1.4715e-08  1.4299e-05  0:01:42  488
   513  1.0643e-04  5.3535e-10  2.9624e-10  5.2753e-08  1.4593e-08  1.4168e-05  0:01:42  487
   514  9.4415e-05  5.2662e-10  2.8865e-10  5.2678e-08  1.4484e-08  1.4020e-05  0:01:42  486
   515  8.4590e-05  5.1891e-10  2.8244e-10  5.2621e-08  1.4353e-08  1.3870e-05  0:01:41  485
   516  7.6130e-05  5.1183e-10  2.7737e-10  5.2555e-08  1.4238e-08  1.3733e-05  0:01:41  484
   517  6.8765e-05  5.0521e-10  2.7269e-10  5.2486e-08  1.4166e-08  1.3616e-05  0:01:41  483

  iter  continuity  x-velocity  y-velocity      energy           k       omega     time/iter
   518  6.2244e-05  4.9911e-10  2.6840e-10  5.2420e-08  1.4069e-08  1.3538e-05  0:01:41  482
   519  5.6512e-05  4.9356e-10  2.6442e-10  5.2354e-08  1.3976e-08  1.3486e-05  0:01:40  481
   520  5.2071e-05  4.8839e-10  2.6061e-10  5.2256e-08  1.3896e-08  1.3444e-05  0:01:40  480
   521  4.8453e-05  4.8343e-10  2.5699e-10  5.2181e-08  1.3817e-08  1.3406e-05  0:01:40  479
   522  4.5569e-05  4.7865e-10  2.5355e-10  5.2115e-08  1.3739e-08  1.3374e-05  0:01:39  478
   523  4.3019e-05  4.7395e-10  2.5036e-10  5.2060e-08  1.3668e-08  1.3351e-05  0:01:39  477
   524  4.0803e-05  4.6938e-10  2.4738e-10  5.2004e-08  1.3590e-08  1.3338e-05  0:01:39  476
   525  3.8875e-05  4.6486e-10  2.4470e-10  5.1954e-08  1.3517e-08  1.3331e-05  0:01:39  475
   526  3.7291e-05  4.6038e-10  2.4199e-10  5.1894e-08  1.3443e-08  1.3329e-05  0:01:38  474
   527  3.6615e-05  4.5589e-10  2.3936e-10  5.2241e-08  1.3384e-08  1.3330e-05  0:01:38  473
   528  3.5865e-05  4.5149e-10  2.3706e-10  5.2379e-08  1.3338e-08  1.3327e-05  0:01:37  472

  iter  continuity  x-velocity  y-velocity      energy           k       omega     time/iter
   529  3.5055e-05  4.4709e-10  2.3453e-10  5.2412e-08  1.3298e-08  1.3327e-05  0:01:37  471
   530  3.4296e-05  4.4278e-10  2.3211e-10  5.2422e-08  1.3240e-08  1.3327e-05  0:01:37  470
   531  3.3699e-05  4.3846e-10  2.2967e-10  5.1864e-08  1.3164e-08  1.3328e-05  0:01:37  469
   532  3.3526e-05  4.3382e-10  2.2683e-10  5.1750e-08  1.3090e-08  1.3332e-05  0:01:37  468
   533  3.2911e-05  4.2924e-10  2.2457e-10  5.1674e-08  1.3021e-08  1.3333e-05  0:01:38  467
   534  3.1836e-05  4.2475e-10  2.2245e-10  5.2042e-08  1.2960e-08  1.3335e-05  0:01:37  466
   535  3.1779e-05  4.2047e-10  2.2027e-10  5.2142e-08  1.2926e-08  1.3332e-05  0:01:37  465
   536  3.1569e-05  4.1640e-10  2.1799e-10  5.2146e-08  1.2865e-08  1.3334e-05  0:01:37  464
   537  3.1294e-05  4.1242e-10  2.1571e-10  5.2127e-08  1.2805e-08  1.3335e-05  0:01:36  463
   538  3.1097e-05  4.0850e-10  2.1337e-10  5.2101e-08  1.2753e-08  1.3335e-05  0:01:36  462
   539  3.1011e-05  4.0462e-10  2.1108e-10  5.2074e-08  1.2704e-08  1.3336e-05  0:01:36  461

  iter  continuity  x-velocity  y-velocity      energy           k       omega     time/iter
   540  3.0839e-05  4.0081e-10  2.0884e-10  5.1918e-08  1.2652e-08  1.3336e-05  0:01:36  460
   541  3.0547e-05  3.9714e-10  2.0665e-10  5.1927e-08  1.2600e-08  1.3338e-05  0:01:35  459
   542  3.0126e-05  3.9365e-10  2.0455e-10  5.1978e-08  1.2548e-08  1.3340e-05  0:01:36  458
   543  2.9711e-05  3.9017e-10  2.0245e-10  5.1957e-08  1.2489e-08  1.3341e-05  0:01:36  457
   544  2.9321e-05  3.8673e-10  2.0045e-10  5.1884e-08  1.2439e-08  1.3341e-05  0:01:36  456
   545  2.8948e-05  3.8334e-10  1.9851e-10  5.1846e-08  1.2392e-08  1.3342e-05  0:01:36  455
   546  2.8511e-05  3.8006e-10  1.9666e-10  5.1808e-08  1.2355e-08  1.3342e-05  0:01:36  454
   547  2.8056e-05  3.7690e-10  1.9487e-10  5.1770e-08  1.2308e-08  1.3343e-05  0:01:36  453
   548  2.7574e-05  3.7386e-10  1.9314e-10  5.1731e-08  1.2271e-08  1.3344e-05  0:01:36  452
   549  2.7008e-05  3.7093e-10  1.9142e-10  5.1691e-08  1.2238e-08  1.3344e-05  0:01:35  451
   550  2.6404e-05  3.6810e-10  1.8972e-10  5.1650e-08  1.2215e-08  1.3344e-05  0:01:35  450

  iter  continuity  x-velocity  y-velocity      energy           k       omega     time/iter
[...]
-pressure yes 1 0 line_0.0244 ()/plot plot yes M2.25_N2_Pres_5222_Pchm_170_coarse/Contour_Data/axial_mach_y_122 yes no no mach yes 1 0 line_0.0244 ()/plot plot yes M2.25_N2_Pres_5222_Pchm_170_coarse/Contour_Data/axial_temperature_y_122 yes no no temperature yes 1 0 line_0.0244 ()/plot plot yes M2.25_N2_Pres_5222_Pchm_170_coarse/Contour_Data/axial_density_y_122 yes no no density yes 1 0 line_0.0244 ()/surface/line-surface line_0.0246 0.041621 0.0246 0.774 0.0246/plot plot yes M2.25_N2_Pres_5222_Pchm_170_coarse/Contour_Data/axial_pressure_y_123 yes no no total-pressure yes 1 0 line_0.0246 ()/plot plot yes M2.25_N2_Pres_5222_Pchm_170_coarse/Contour_Data/axial_mach_y_123 yes no no mach yes 1 0 line_0.0246 ()/plot plot yes M2.25_N2_Pres_5222_Pchm_170_coarse/Contour_Data/axial_temperature_y_123 yes no no temperature yes 1 0 line_0.0246 ()/plot plot yes M2.25_N2_Pres_5222_Pchm_170_coarse/Contour_Data/axial_density_y_123 yes no no density yes 1 0 line_0.0246 ()/surface/line-surface line_0.0248 0.041621 0.0248 0.774 0.0248/plot plot yes M2.25_N2_Pres_5222_Pchm_170_coarse/Contour_Data/axial_pressure_y_124 yes no no total-pressure yes 1 0 line_0.0248 ()/plot plot yes M2.25_N2_Pres_5222_Pchm_170_coarse/Contour_Data/axial_mach_y_124 yes no no mach yes 1 0 line_0.0248 ()/plot plot yes M2.25_N2_Pres_5222_Pchm_170_coarse/Contour_Data/axial_temperature_y_124 yes no no temperature yes 1 0 line_0.0248 ()/plot plot yes M2.25_N2_Pres_5222_Pchm_170_coarse/Contour_Data/axial_density_y_124 yes no no density yes 1 0 line_0.0248 ()/surface/line-surface line_0.025 0.041621 0.025 0.774 0.025/plot plot yes M2.25_N2_Pres_5222_Pchm_170_coarse/Contour_Data/axial_pressure_y_125 yes no no total-pressure yes 1 0 line_0.025 ()/plot plot yes M2.25_N2_Pres_5222_Pchm_170_coarse/Contour_Data/axial_mach_y_125 yes no no mach yes 1 0 line_0.025 ()/plot plot yes M2.25_N2_Pres_5222_Pchm_170_coarse/Contour_Data/axial_temperature_y_125 yes no no temperature yes 1 0 line_0.025 ()/plot plot yes M2.25_N2_Pres_5222_Pchm_170_coarse/Contour_Data/axial_density_y_125 yes no no density yes 1 0 line_0.025 ()/surface/line-surface line_0.0252 0.041621 0.0252 0.774 0.0252/plot plot yes M2.25_N2_Pres_5222_Pchm_170_coarse/Contour_Data/axial_pressure_y_126 yes no no total-pressure yes 1 0 line_0.0252 ()/plot plot yes M2.25_N2_Pres_5222_Pchm_170_coarse/Contour_Data/axial_mach_y_126 yes no no mach yes 1 0 line_0.0252 ()/plot plot yes M2.25_N2_Pres_5222_Pchm_170_coarse/Contour_Data/axial_temperature_y_126 yes no no temperature yes 1 0 line_0.0252 ()/plot plot yes M2.25_N2_Pres_5222_Pchm_170_coarse/Contour_Data/axial_density_y_126 yes no no density yes 1 0 line_0.0252 ()/surface/line-surface line_0.0254 0.041621 0.0254 0.774 0.0254/plot plot yes M2.25_N2_Pres_5222_Pchm_170_coarse/Contour_Data/axial_pressure_y_127 yes no no total-pressure yes 1 0 line_0.0254 ()/plot plot yes M2.25_N2_Pres_5222_Pchm_170_coarse/Contour_Data/axial_mach_y_127 yes no no mach yes 1 0 line_0.0254 ()/plot plot yes M2.25_N2_Pres_5222_Pchm_170_coarse/Contour_Data/axial_temperature_y_127 yes no no temperature yes 1 0 line_0.0254 ()/plot plot yes M2.25_N2_Pres_5222_Pchm_170_coarse/Contour_Data/axial_density_y_127 yes no no density yes 1 0 line_0.0254 ()/surface/line-surface line_0.0256 0.041621 0.0256 0.774 0.0256/plot plot yes M2.25_N2_Pres_5222_Pchm_170_coarse/Contour_Data/axial_pressure_y_128 yes no no total-pressure yes 1 0 line_0.0256 ()/plot plot yes M2.25_N2_Pres_5222_Pchm_170_coarse/Contour_Data/axial_mach_y_128 yes no no mach yes 1 0 line_0.0256 ()/plot plot yes M2.25_N2_Pres_5222_Pchm_170_coarse/Contour_Data/axial_temperature_y_128 yes no no temperature yes 1 0 line_0.0256 ()/plot plot yes M2.25_N2_Pres_5222_Pchm_170_coarse/Contour_Data/axial_density_y_128 yes no no density yes 1 0 line_0.0256 ()/surface/line-surface line_0.0258 0.041621 0.0258 0.774 0.0258/plot plot yes M2.25_N2_Pres_5222_Pchm_170_coarse/Contour_Data/axial_pressure_y_129 yes no no total-pressure yes 1 0 line_0.0258 ()/plot plot yes M2.25_N2_Pres_5222_Pchm_170_coarse/Contour_Data/axial_mach_y_129 yes no no mach yes 1 0 line_0.0258 ()/plot plot yes M2.25_N2_Pres_5222_Pchm_170_coarse/Contour_Data/axial_temperature_y_129 yes no no temperature yes 1 0 line_0.0258 ()/plot plot yes M2.25_N2_Pres_5222_Pchm_170_coarse/Contour_Data/axial_density_y_129 yes no no density yes 1 0 line_0.0258 ()/surface/line-surface line_0.026 0.041621 0.026 0.774 0.026/plot plot yes M2.25_N2_Pres_5222_Pchm_170_coarse/Contour_Data/axial_pressure_y_130 yes no no total-pressure yes 1 0 line_0.026 ()/plot plot yes M2.25_N2_Pres_5222_Pchm_170_coarse/Contour_Data/axial_mach_y_130 yes no no mach yes 1 0 line_0.026 ()/plot plot yes M2.25_N2_Pres_5222_Pchm_170_coarse/Contour_Data/axial_temperature_y_130 yes no no temperature yes 1 0 line_0.026 ()/plot plot yes M2.25_N2_Pres_5222_Pchm_170_coarse/Contour_Data/axial_density_y_130 yes no no density yes 1 0 line_0.026 ()/surface/line-surface line_0.0262 0.041621 0.0262 0.774 0.0262/plot plot yes M2.25_N2_Pres_5222_Pchm_170_coarse/Contour_Data/axial_pressure_y_131 yes no no total-pressure yes 1 0 line_0.0262 ()/plot plot yes M2.25_N2_Pres_5222_Pchm_170_coarse/Contour_Data/axial_mach_y_131 yes no no mach yes 1 0 line_0.0262 ()/plot plot yes M2.25_N2_Pres_5222_Pchm_170_coarse/Contour_Data/axial_temperature_y_131 yes no no temperature yes 1 0 line_0.0262 ()/plot plot yes M2.25_N2_Pres_5222_Pchm_170_coarse/Contour_Data/axial_density_y_131 yes no no density yes 1 0 line_0.0262 ()/surface/line-surface line_0.0264 0.041621 0.0264 0.774 0.0264/plot plot yes M2.25_N2_Pres_5222_Pchm_170_coarse/Contour_Data/axial_pressure_y_132 yes no no total-pressure yes 1 0 line_0.0264 ()/plot plot yes M2.25_N2_Pres_5222_Pchm_170_coarse/Contour_Data/axial_mach_y_132 yes no no mach yes 1 0 line_0.0264 ()/plot plot yes M2.25_N2_Pres_5222_Pchm_170_coarse/Contour_Data/axial_temperature_y_132 yes no no temperature yes 1 0 line_0.0264 ()/plot plot yes M2.25_N2_Pres_5222_Pchm_170_coarse/Contour_Data/axial_density_y_132 yes no no density yes 1 0 line_0.0264 ()/surface/line-surface line_0.0266 0.041621 0.0266 0.774 0.0266/plot plot yes M2.25_N2_Pres_5222_Pchm_170_coarse/Contour_Data/axial_pressure_y_133 yes no no total-pressure yes 1 0 line_0.0266 ()/plot plot yes M2.25_N2_Pres_5222_Pchm_170_coarse/Contour_Data/axial_mach_y_133 yes no no mach yes 1 0 line_0.0266 ()/plot plot yes M2.25_N2_Pres_5222_Pchm_170_coarse/Contour_Data/axial_temperature_y_133 yes no no temperature yes 1 0 line_0.0266 ()/plot plot yes M2.25_N2_Pres_5222_Pchm_170_coarse/Contour_Data/axial_density_y_133 yes no no density yes 1 0 line_0.0266 ()/surface/line-surface line_0.0268 0.041621 0.0268 0.774 0.0268/plot plot yes M2.25_N2_Pres_5222_Pchm_170_coarse/Contour_Data/axial_pressure_y_134 yes no no total-pressure yes 1 0 line_0.0268 ()/plot plot yes M2.25_N2_Pres_5222_Pchm_170_coarse/Contour_Data/axial_mach_y_134 yes no no mach yes 1 0 line_0.0268 ()/plot plot yes M2.25_N2_Pres_5222_Pchm_170_coarse/Contour_Data/axial_temperature_y_134 yes no no temperature yes 1 0 line_0.0268 ()/plot plot yes M2.25_N2_Pres_5222_Pchm_170_coarse/Contour_Data/axial_density_y_134 yes no no density yes 1 0 line_0.0268 ()/surface/line-surface line_0.027 0.041621 0.027 0.774 0.027/plot plot yes M2.25_N2_Pres_5222_Pchm_170_coarse/Contour_Data/axial_pressure_y_135 yes no no total-pressure yes 1 0 line_0.027 ()/plot plot yes M2.25_N2_Pres_5222_Pchm_170_coarse/Contour_Data/axial_mach_y_135 yes no no mach yes 1 0 line_0.027 ()/plot plot yes M2.25_N2_Pres_5222_Pchm_170_coarse/Contour_Data/axial_temperature_y_135 yes no no temperature yes 1 0 line_0.027 ()/plot plot yes M2.25_N2_Pres_5222_Pchm_170_coarse/Contour_Data/axial_density_y_135 yes no no density yes 1 0 line_0.027 ()/surface/line-surface line_0.0272 0.041621 0.0272 0.774 0.0272/plot plot yes M2.25_N2_Pres_5222_Pchm_170_coarse/Contour_Data/axial_pressure_y_136 yes no no total-pressure yes 1 0 line_0.0272 ()/plot plot yes M2.25_N2_Pres_5222_Pchm_170_coarse/Contour_Data/axial_mach_y_136 yes no no mach yes 1 0 line_0.0272 ()/plot plot yes M2.25_N2_Pres_5222_Pchm_170_coarse/Contour_Data/axial_temperature_y_136 yes no no temperature yes 1 0 line_0.0272 ()/plot plot yes M2.25_N2_Pres_5222_Pchm_170_coarse/Contour_Data/axial_density_y_136 yes no no density yes 1 0 line_0.0272 ()/surface/line-surface line_0.0274 0.041621 0.0274 0.774 0.0274/plot plot yes M2.25_N2_Pres_5222_Pchm_170_coarse/Contour_Data/axial_pressure_y_137 yes no no total-pressure yes 1 0 line_0.0274 ()/plot plot yes M2.25_N2_Pres_5222_Pchm_170_coarse/Contour_Data/axial_mach_y_137 yes no no mach yes 1 0 line_0.0274 ()/plot plot yes M2.25_N2_Pres_5222_Pchm_170_coarse/Contour_Data/axial_temperature_y_137 yes no no temperature yes 1 0 line_0.0274 ()/plot plot yes M2.25_N2_Pres_5222_Pchm_170_coarse/Contour_Data/axial_density_y_137 yes no no density yes 1 0 line_0.0274 ()/surface/line-surface line_0.0276 0.041621 0.0276 0.774 0.0276/plot plot yes M2.25_N2_Pres_5222_Pchm_170_coarse/Contour_Data/axial_pressure_y_138 yes no no total-pressure yes 1 0 line_0.0276 ()/plot plot yes M2.25_N2_Pres_5222_Pchm_170_coarse/Contour_Data/axial_mach_y_138 yes no no mach yes 1 0 line_0.0276 ()/plot plot yes M2.25_N2_Pres_5222_Pchm_170_coarse/Contour_Data/axial_temperature_y_138 yes no no temperature yes 1 0 line_0.0276 ()/plot plot yes M2.25_N2_Pres_5222_Pchm_170_coarse/Contour_Data/axial_density_y_138 yes no no density yes 1 0 line_0.0276 ()/surface/line-surface line_0.0278 0.041621 0.0278 0.774 0.0278/plot plot yes M2.25_N2_Pres_5222_Pchm_170_coarse/Contour_Data/axial_pressure_y_139 yes no no total-pressure yes 1 0 line_0.0278 ()/plot plot yes M2.25_N2_Pres_5222_Pchm_170_coarse/Contour_Data/axial_mach_y_139 yes no no mach yes 1 0 line_0.0278 ()/plot plot yes M2.25_N2_Pres_5222_Pchm_170_coarse/Contour_Data/axial_temperature_y_139 yes no no temperature yes 1 0 line_0.0278 ()/plot plot yes M2.25_N2_Pres_5222_Pchm_170_coarse/Contour_Data/axial_density_y_139 yes no no density yes 1 0 line_0.0278 ()/surface/line-surface line_0.028 0.041621 0.028 0.774 0.028/plot plot yes M2.25_N2_Pres_5222_Pchm_170_coarse/Contour_Data/axial_pressure_y_140 yes no no total-pressure yes 1 0 line_0.028 ()/plot plot yes M2.25_N2_Pres_5222_Pchm_170_coarse/Contour_Data/axial_mach_y_140 yes no no mach yes 1 0 line_0.028 ()/plot plot yes M2.25_N2_Pres_5222_Pchm_170_coarse/Contour_Data/axial_temperature_y_140 yes no no temperature yes 1 0 line_0.028 ()/plot plot yes M2.25_N2_Pres_5222_Pchm_170_coarse/Contour_Data/axial_density_y_140 yes no no density yes 1 0 line_0.028 ()/surface/line-surface line_0.0282 0.041621 0.0282 0.774 0.0282/plot plot yes M2.25_N2_Pres_5222_Pchm_170_coarse/Contour_Data/axial_pressure_y_141 yes no no total-pressure yes 1 0 line_0.0282 ()/plot plot yes M2.25_N2_Pres_5222_Pchm_170_coarse/Contour_Data/axial_mach_y_141 yes no no mach yes 1 0 line_0.0282 ()/plot plot yes M2.25_N2_Pres_5222_Pchm_170_coarse/Contour_Data/axial_temperature_y_141 yes no no temperature yes 1 0 line_0.0282 ()/plot plot yes M2.25_N2_Pres_5222_Pchm_170_coarse/Contour_Data/axial_density_y_141 yes no no density yes 1 0 line_0.0282 ()/surface/line-surface line_0.0284 0.041621 0.0284 0.774 0.0284/plot plot yes M2.25_N2_Pres_5222_Pchm_170_coarse/Contour_Data/axial_pressure_y_142 yes no no total-pressure yes 1 0 line_0.0284 ()/plot plot yes M2.25_N2_Pres_5222_Pchm_170_coarse/Contour_Data/axial_mach_y_142 yes no no mach yes 1 0 line_0.0284 ()/plot plot yes M2.25_N2_Pres_5222_Pchm_170_coarse/Contour_Data/axial_temperature_y_142 yes no no temperature yes 1 0 line_0.0284 ()/plot plot yes M2.25_N2_Pres_5222_Pchm_170_coarse/Contour_Data/axial_density_y_142 yes no no density yes 1 0 line_0.0284 ()/surface/line-surface line_0.0286 0.041621 0.0286 0.774 0.0286/plot plot yes M2.25_N2_Pres_5222_Pchm_170_coarse/Contour_Data/axial_pressure_y_143 yes no no total-pressure yes 1 0 line_0.0286 ()/plot plot yes M2.25_N2_Pres_5222_Pchm_170_coarse/Contour_Data/axial_mach_y_143 yes no no mach yes 1 0 line_0.0286 ()/plot plot yes M2.25_N2_Pres_5222_Pchm_170_coarse/Contour_Data/axial_temperature_y_143 yes no no temperature yes 1 0 line_0.0286 ()/plot plot yes M2.25_N2_Pres_5222_Pchm_170_coarse/Contour_Data/axial_density_y_143 yes no no density yes 1 0 line_0.0286 ()/surface/line-surface line_0.0288 0.041621 0.0288 0.774 0.0288/plot plot yes M2.25_N2_Pres_5222_Pchm_170_coarse/Contour_Data/axial_pressure_y_144 yes no no total-pressure yes 1 0 line_0.0288 ()/plot plot yes M2.25_N2_Pres_5222_Pchm_170_coarse/Contour_Data/axial_mach_y_144 yes no no mach yes 1 0 line_0.0288 ()/plot plot yes M2.25_N2_Pres_5222_Pchm_170_coarse/Contour_Data/axial_temperature_y_144 yes no no temperature yes 1 0 line_0.0288 ()/plot plot yes M2.25_N2_Pres_5222_Pchm_170_coarse/Contour_Data/axial_density_y_144 yes no no density yes 1 0 line_0.0288 ()/surface/line-surface line_0.029 0.041621 0.029 0.774 0.029/plot plot yes M2.25_N2_Pres_5222_Pchm_170_coarse/Contour_Data/axial_pressure_y_145 yes no no total-pressure yes 1 0 line_0.029 ()/plot plot yes M2.25_N2_Pres_5222_Pchm_170_coarse/Contour_Data/axial_mach_y_145 yes no no mach yes 1 0 line_0.029 ()/plot plot yes M2.25_N2_Pres_5222_Pchm_170_coarse/Contour_Data/axial_temperature_y_145 yes no no temperature yes 1 0 line_0.029 ()/plot plot yes M2.25_N2_Pres_5222_Pchm_170_coarse/Contour_Data/axial_density_y_145 yes no no density yes 1 0 line_0.029 ()/surface/line-surface line_0.0292 0.041621 0.0292 0.774 0.0292/plot plot yes M2.25_N2_Pres_5222_Pchm_170_coarse/Contour_Data/axial_pressure_y_146 yes no no total-pressure yes 1 0 line_0.0292 ()/plot plot yes M2.25_N2_Pres_5222_Pchm_170_coarse/Contour_Data/axial_mach_y_146 yes no no mach yes 1 0 line_0.0292 ()/plot plot yes M2.25_N2_Pres_5222_Pchm_170_coarse/Contour_Data/axial_temperature_y_146 yes no no temperature yes 1 0 line_0.0292 ()/plot plot yes M2.25_N2_Pres_5222_Pchm_170_coarse/Contour_Data/axial_density_y_146 yes no no density yes 1 0 line_0.0292 ()/surface/line-surface line_0.0294 0.041621 0.0294 0.774 0.0294/plot plot yes M2.25_N2_Pres_5222_Pchm_170_coarse/Contour_Data/axial_pressure_y_147 yes no no total-pressure yes 1 0 line_0.0294 ()/plot plot yes M2.25_N2_Pres_5222_Pchm_170_coarse/Contour_Data/axial_mach_y_147 yes no no mach yes 1 0 line_0.0294 ()/plot plot yes M2.25_N2_Pres_5222_Pchm_170_coarse/Contour_Data/axial_temperature_y_147 yes no no temperature yes 1 0 line_0.0294 ()/plot plot yes M2.25_N2_Pres_5222_Pchm_170_coarse/Contour_Data/axial_density_y_147 yes no no density yes 1 0 line_0.0294 ()/surface/line-surface line_0.0296 0.041621 0.0296 0.774 0.0296/plot plot yes M2.25_N2_Pres_5222_Pchm_170_coarse/Contour_Data/axial_pressure_y_148 yes no no total-pressure yes 1 0 line_0.0296 ()/plot plot yes M2.25_N2_Pres_5222_Pchm_170_coarse/Contour_Data/axial_mach_y_148 yes no no mach yes 1 0 line_0.0296 ()/plot plot yes M2.25_N2_Pres_5222_Pchm_170_coarse/Contour_Data/axial_temperature_y_148 yes no no temperature yes 1 0 line_0.0296 ()/plot plot yes M2.25_N2_Pres_5222_Pchm_170_coarse/Contour_Data/axial_density_y_148 yes no no density yes 1 0 line_0.0296 ()/surface/line-surface line_0.0298 0.041621 0.0298 0.774 0.0298/plot plot yes M2.25_N2_Pres_5222_Pchm_170_coarse/Contour_Data/axial_pressure_y_149 yes no no total-pressure yes 1 0 line_0.0298 ()/plot plot yes M2.25_N2_Pres_5222_Pchm_170_coarse/Contour_Data/axial_mach_y_149 yes no no mach yes 1 0 line_0.0298 ()/plot plot yes M2.25_N2_Pres_5222_Pchm_170_coarse/Contour_Data/axial_temperature_y_149 yes no no temperature yes 1 0 line_0.0298 ()/plot plot yes M2.25_N2_Pres_5222_Pchm_170_coarse/Contour_Data/axial_density_y_149 yes no no density yes 1 0 line_0.0298 ()/surface/line-surface line_0.03 0.041621 0.03 0.774 0.03/plot plot yes M2.25_N2_Pres_5222_Pchm_170_coarse/Contour_Data/axial_pressure_y_150 yes no no total-pressure yes 1 0 line_0.03 ()/plot plot yes M2.25_N2_Pres_5222_Pchm_170_coarse/Contour_Data/axial_mach_y_150 yes no no mach yes 1 0 line_0.03 ()/plot plot yes M2.25_N2_Pres_5222_Pchm_170_coarse/Contour_Data/axial_temperature_y_150 yes no no temperature yes 1 0 line_0.03 ()/plot plot yes M2.25_N2_Pres_5222_Pchm_170_coarse/Contour_Data/axial_density_y_150 yes no no density yes 1 0 line_0.03 ()#f


> 
adjoint/                mesh/                   report/
define/                 parallel/               server/
display/                plot/                   solve/
exit                    preferences/            surface/
file/                   print-license-usage     views/

> ;(ti-menu-load-string (format #f "/preferences/appearance graphics-background-color-1 255 255 255"))
;(ti-menu-load-string (format #f "/preferences/appearance graphics-background-color-2 255 255 255"))

adjoint/                mesh/                   report/
define/                 parallel/               server/
display/                plot/                   solve/
exit                    preferences/            surface/
file/                   print-license-usage     views/

> 
adjoint/                mesh/                   report/
define/                 parallel/               server/
display/                plot/                   solve/
exit                    preferences/            surface/
file/                   print-license-usage     views/

> ;(ti-menu-load-string (format #f "/display/views autoscale")
;(ti-menu-load-string (format #f "/display/set/windows ruler? yes")
;(ti-menu-load-string (format #f "/display/save-picture mach-contour")

adjoint/                mesh/                   report/
define/                 parallel/               server/
display/                plot/                   solve/
exit                    preferences/            surface/
file/                   print-license-usage     views/

> ;(ti-menu-load-string (format #f "/display/objects create contour temp-contour field temperature surfaces-list int_fluid () colormap color bgr-modern format %0.4f position 3 font-size 0.05 size 35 length 0.3 width 1.2 () ()"))
;(ti-menu-load-string (format #f "/display/objects/display temp-contour")
;(ti-menu-load-string (format #f "/display/views autoscale")
;(ti-menu-load-string (format #f "/display/set/windows ruler? yes")
;(ti-menu-load-string (format #f "/display/save-picture temp-contour")

adjoint/                mesh/                   report/
define/                 parallel/               server/
display/                plot/                   solve/
exit                    preferences/            surface/
file/                   print-license-usage     views/

> (ti-menu-load-string (format #f "/file/write-case M2.25_N2_Pres_5222_Pchm_170_coarse/CFD_Data.cas y"))
/file/write-case M2.25_N2_Pres_5222_Pchm_170_coarse/CFD_Data.cas Fast-loading "/apps/applications/ansys/2023R1/1/default/v231/fluent/fluent23.1.0/addons/afd/lib/hdfio.bin"
Done.

Writing to d13s9b1.arc4.leeds.ac.uk:"/nobackup/scldr/ACRE/M2.25_N2_Pres_5222_Pchm_170_coarse/CFD_Data.cas.h5" in NODE0 mode and compression level 1 ...
Grouping cells for Laplace smoothing ...
      156882 cells,     2 zones ...
      321833 faces,    18 zones ...
      155278 nodes,     1 zone  ...
  Done.

  Writing automatic adaption criteria ...
  Done.
Done.
yinvalid command [y]
#t


> (ti-menu-load-string (format #f "/file/write-data M2.25_N2_Pres_5222_Pchm_170_coarse/CFD_Data.dat y"))
/file/write-data M2.25_N2_Pres_5222_Pchm_170_coarse/CFD_Data.dat 
Writing to d13s9b1.arc4.leeds.ac.uk:"/nobackup/scldr/ACRE/M2.25_N2_Pres_5222_Pchm_170_coarse/CFD_Data.dat.h5" in NODE0 mode and compression level 1 ...
  Writing results.
Done.
yinvalid command [y]
#t


> 
adjoint/                mesh/                   report/
define/                 parallel/               server/
display/                plot/                   solve/
exit                    preferences/            surface/
file/                   print-license-usage     views/

> exit 
Posting ANSYS Product Improvement Program performance data 
Done.
Auto-Transcript Stop Time:  02:33:32, 24 Nov 2023 
Total Transcript Time: 4 Minute 42 Second.

Automatic transcript closed.
