Auto-Transcript Start Time:  02:33:15, 24 Nov 2023 
Current Directory: "/nobackup/scldr/ACRE/M2.25_N2_Pres_5222_Pchm_170_coarse"
/apps/applications/ansys/2022R1/1/default/v221/fluent/fluent22.1.0/bin/fluent -r22.1.0 2ddp -pshmem -host -t1 -mpi=intel -path/apps/applications/ansys/2022R1/1/default/v221/fluent -ssh -cx login1.arc4.leeds.ac.uk:41531:34275
Starting /apps/applications/ansys/2022R1/1/default/v221/fluent/fluent22.1.0/lnamd64/2ddp_host/fluent.22.1.0 host -cx login1.arc4.leeds.ac.uk:41531:34275 "(list (rpsetvar (QUOTE parallel/function) "fluent 2ddp -flux -node -r22.1.0 -t1 -pshmem -mpi=intel -ssh") (rpsetvar (QUOTE parallel/rhost) "") (rpsetvar (QUOTE parallel/ruser) "") (rpsetvar (QUOTE parallel/nprocs_string) "1") (rpsetvar (QUOTE parallel/auto-spawn?) #t) (rpsetvar (QUOTE parallel/trace-level) 0) (rpsetvar (QUOTE parallel/remote-shell) 1) (rpsetvar (QUOTE parallel/path) "/apps/applications/ansys/2022R1/1/default/v221/fluent") (rpsetvar (QUOTE parallel/hostsfile) "") (rpsetvar (QUOTE gpuapp/devices) ""))"

              Welcome to ANSYS Fluent 2022 R1

              Copyright 1987-2022 ANSYS, Inc. All Rights Reserved.
              Unauthorized use, distribution or duplication is prohibited.
              This product is subject to U.S. laws governing export and re-export.
              For full Legal Notice, see documentation.

Build Time: Nov 29 2021 12:13:25 EST  Build Id: 10213  
 
Connected License Server List:	1055@ansys-research.leeds.ac.uk

*********************************************
Info: Your license enables 4-way parallel execution.
For faster simulations, please start the application with the appropriate parallel options.
*********************************************


     --------------------------------------------------------------
     This is an academic version of ANSYS FLUENT. Usage of this product
     license is limited to the terms and conditions specified in your ANSYS
     license form, additional terms section.
     --------------------------------------------------------------
Host spawning Node 0 on machine "login1.arc4.leeds.ac.uk" (unix).
/apps/applications/ansys/2022R1/1/default/v221/fluent/fluent22.1.0/bin/fluent -r22.1.0 2ddp -flux -node -t1 -pshmem -mpi=intel -ssh -mport 10.12.169.0:10.12.169.0:41335:0
Starting /apps/applications/ansys/2022R1/1/default/v221/fluent/fluent22.1.0/multiport/mpi/lnamd64/intel/bin/mpirun --rsh=ssh -f /tmp/fluent-appfile.scldr.195347 -genv FLUENT_ARCH lnamd64 -genv I_MPI_DEBUG 0 -genv I_MPI_ADJUST_REDUCE 2 -genv I_MPI_ADJUST_ALLREDUCE 2 -genv I_MPI_ADJUST_BCAST 8 -genv I_MPI_ADJUST_BARRIER 2 -genv I_MPI_ADJUST_ALLGATHER 2 -genv I_MPI_ADJUST_GATHER 2 -genv I_MPI_ADJUST_ALLTOALL 1 -genv I_MPI_ADJUST_SCATTER 2 -genv I_MPI_ADJUST_SCATTERV 2 -genv I_MPI_ADJUST_ALLGATHERV 2 -genv I_MPI_ADJUST_GATHERV 2 -genv I_MPI_PLATFORM auto -genv PYTHONHOME /apps/applications/ansys/2022R1/1/default/v221/fluent/fluent22.1.0/../../commonfiles/CPython/3_7/linx64/Release/python -genv FLUENT_PROD_DIR /apps/applications/ansys/2022R1/1/default/v221/fluent/fluent22.1.0 -genv FLUENT_AFFINITY 0 -genv I_MPI_PIN enable -genv KMP_AFFINITY disabled -genv LD_PRELOAD /apps/applications/ansys/2022R1/1/default/v221/fluent/fluent22.1.0/multiport/mpi/lnamd64/intel/lib/libstrtok.so -genv TMI_CONFIG /apps/applications/ansys/2022R1/1/default/v221/fluent/fluent22.1.0/multiport/mpi/lnamd64/intel/etc/tmi.conf -n 1 -host login1.arc4.leeds.ac.uk /apps/applications/ansys/2022R1/1/default/v221/fluent/fluent22.1.0/lnamd64/2ddp_node/fluent_mpi.22.1.0 node -mpiw intel -pic shmem -mport 10.12.169.0:10.12.169.0:41335:0

--------------------------------------------------------------------------------
ID    Hostname              Core  O.S.      PID     Vendor                     
--------------------------------------------------------------------------------
n0    login1.arc4.leeds.ac  1/40  Linux-64  195404  Intel(R) Xeon(R) Gold 6138 
host  login1.arc4.leeds.ac        Linux-64  194975  Intel(R) Xeon(R) Gold 6138 

MPI Option Selected: intel
--------------------------------------------------------------------------------

Cleanup script file is /nobackup/scldr/ACRE/M2.25_N2_Pres_5222_Pchm_170_coarse/cleanup-fluent-login1.arc4.leeds.ac.uk-194975.sh

Posting ANSYS Product Improvement Program startup data
Done.

> (cx-gui-do cx-activate-item "Key Behavioral Changes*PanelButtons*PushButton1(OK)")
(cx-gui-do cx-activate-item "MenuBar*ReadSubMenu*Mesh...")
(cx-gui-do cx-set-file-dialog-entries "Select File" '( "Mesh.msh") "All Mesh Files (*.msh* *.MSH* )")
WARNING: Rank:0 Machine login1.arc4.leeds.ac.uk has 13 % of RAM filled with file buffer caches.
This can cause potential performance issues. Please use -cflush flag to flush the cache. 

Reading "/nobackup/scldr/ACRE/M2.25_N2_Pres_5222_Pchm_170_coarse/Mesh.msh"...
Buffering for file scan...

  133294 nodes.
  132262 quadrilateral cells, zone 14.
  263493 2D interior faces, zone 15.
      68 2D wall faces, zone 16.
      10 2D pressure-inlet faces, zone 17.
     150 2D wall faces, zone 18.
     148 2D wall faces, zone 19.
     643 2D wall faces, zone 20.
      12 2D pressure-outlet faces, zone 21.
     190 2D wall faces, zone 22.
     841 2D axis faces, zone 23.

Building...
     mesh
     materials,
     interface,
     domains,
     zones,
	axis
	right_reactor_wall
	outlet
	top_reactor_wall
	left_reactor_wall
	nozzle_wall
	inlet
	reservoir_wall
	int_fluid
	fluid
     parallel,
Done.

Preparing mesh for display...
Warning: The use of axis boundary conditions is not appropriate for
         a 2D/3D flow problem. Please consider changing the zone
         type to symmetry or wall, or the problem to axisymmetric.

Warning: The use of axis boundary conditions is not appropriate for
         a 2D/3D flow problem. Please consider changing the zone
         type to symmetry or wall, or the problem to axisymmetric.

Done.
(cx-gui-do cx-activate-item "Ribbon*Frame1*Frame7(View)*Table1*Table3(Display)*PushButton1(Views)")
(cx-gui-do cx-set-list-selections "Views*Table4*List1(Mirror Planes)" '( 0))
(cx-gui-do cx-activate-item "Views*Table4*List1(Mirror Planes)")
(cx-gui-do cx-activate-item "Views*PanelButtons*PushButton1(Apply)")
(cx-gui-do cx-activate-item "Views*PanelButtons*PushButton2(Close)")
(cx-use-window-id 51)
(dolly-camera 48.2647 -8.53794 0)
(cx-use-window-id 51)
(dolly-camera 54.7694 1.54071 0)
(cx-use-window-id 51)
(handle-key "control ៀ")
(cx-use-window-id 51)
(dolly-camera 86.625 -5.64907 0)
(cx-use-window-id 51)
(handle-key "control ៀ")
(cx-use-window-id 51)
(dolly-camera 65.9468 -1.02708 0)
(cx-use-window-id 51)
(handle-key "control ៀ")
(cx-use-window-id 51)
(dolly-camera 34.9895 -1.69221 0)
(cx-use-window-id 51)
(handle-key "control ៀ")
(cx-use-window-id 51)
(dolly-camera 44.5041 -0.564053 0)
(cx-use-window-id 51)
(handle-key "control ៀ")
(cx-use-window-id 51)
(dolly-camera 27.6233 -1.6922 0)
(cx-gui-do cx-set-list-tree-selections "NavigationPane*Frame2*Table1*List_Tree2" (list "Results|Surfaces"))
(cx-gui-do cx-list-tree-right-click "NavigationPane*Frame2*Table1*List_Tree2" )
(cx-gui-do cx-set-list-tree-selections "NavigationPane*Frame2*Table1*List_Tree2" (list "Results|Graphics|Mesh"))
(cx-gui-do cx-list-tree-right-click "NavigationPane*Frame2*Table1*List_Tree2" )
(cx-gui-do cx-activate-item "MenuBar*PopupMenuTree-Mesh*New...")
(cx-gui-do cx-activate-item "Mesh Display*PanelButtons*PushButton1(OK)")
(cx-gui-do cx-set-list-selections "Mesh Display*Table1*Frame3*List1(Surfaces)" '( 0 2 3 4 5 6 7 8))
(cx-gui-do cx-activate-item "Mesh Display*Table1*Frame3*List1(Surfaces)")
(cx-gui-do cx-set-list-selections "Mesh Display*Table1*Frame3*List1(Surfaces)" '( 0 2 3 4 6 7 8))
(cx-gui-do cx-activate-item "Mesh Display*Table1*Frame3*List1(Surfaces)")
(cx-gui-do cx-activate-item "Mesh Display*PanelButtons*PushButton1(OK)")
(cx-gui-do cx-activate-item "Mesh Display*Table1*Frame1*Table5(Coloring)*Table2*PushButton2(Edit)")
(cx-gui-do cx-set-list-selections "Zone Type Color and Material Assignment*Table1*Table1*List1(Type)" '( 2))
(cx-gui-do cx-activate-item "Zone Type Color and Material Assignment*Table1*Table1*List1(Type)")
(cx-gui-do cx-set-list-selections "Zone Type Color and Material Assignment*Table1*Table2*List1(Colors)" '( 1))
(cx-gui-do cx-activate-item "Zone Type Color and Material Assignment*Table1*Table2*List1(Colors)")
(cx-gui-do cx-activate-item "Zone Type Color and Material Assignment*PanelButtons*PushButton2(Cancel)")
(cx-gui-do cx-activate-item "Mesh Display*PanelButtons*PushButton1(OK)")
(cx-gui-do cx-activate-item "Mesh Display*PanelButtons*PushButton2(Cancel)")
(cx-gui-do cx-activate-item "Ribbon*Frame1*Frame7(View)*Table1*Table3(Display)*PushButton1(Views)")
(cx-gui-do cx-activate-item "Views*PanelButtons*PushButton2(Close)")
(cx-gui-do cx-activate-item "Ribbon*Frame1*Frame7(View)*Table1*Table3(Display)*PushButton2(Options)")
(cx-gui-do cx-set-list-selections "Display Options*Frame1(Rendering)*Frame7*DropDownList2(Removal Method)" '( 1))
(cx-gui-do cx-activate-item "Display Options*Frame1(Rendering)*Frame7*DropDownList2(Removal Method)")
(cx-gui-do cx-activate-item "Display Options*PanelButtons*PushButton1(Apply)")
(cx-gui-do cx-set-list-selections "Display Options*Frame1(Rendering)*Frame7*DropDownList2(Removal Method)" '( 2))
(cx-gui-do cx-activate-item "Display Options*Frame1(Rendering)*Frame7*DropDownList2(Removal Method)")
(cx-gui-do cx-activate-item "Display Options*PanelButtons*PushButton1(Apply)")
(cx-gui-do cx-set-list-selections "Display Options*Frame1(Rendering)*Frame7*DropDownList2(Removal Method)" '( 3))
(cx-gui-do cx-activate-item "Display Options*Frame1(Rendering)*Frame7*DropDownList2(Removal Method)")
(cx-gui-do cx-activate-item "Display Options*PanelButtons*PushButton1(Apply)")
(cx-gui-do cx-set-toggle-button2 "Display Options*Frame2*Frame1(Lighting Attributes)*CheckButton1(Lights On)" #t)
(cx-gui-do cx-activate-item "Display Options*Frame2*Frame1(Lighting Attributes)*CheckButton1(Lights On)")
(cx-gui-do cx-set-toggle-button2 "Display Options*Frame2*Frame1(Lighting Attributes)*CheckButton1(Lights On)" #f)
(cx-gui-do cx-activate-item "Display Options*Frame2*Frame1(Lighting Attributes)*CheckButton1(Lights On)")
(cx-gui-do cx-set-toggle-button2 "Display Options*Frame2*Frame1(Lighting Attributes)*CheckButton1(Lights On)" #t)
(cx-gui-do cx-activate-item "Display Options*Frame2*Frame1(Lighting Attributes)*CheckButton1(Lights On)")
(cx-gui-do cx-set-list-selections "Display Options*Frame2*Frame1(Lighting Attributes)*Frame2*DropDownList2(Lighting)" '( 1))
(cx-gui-do cx-activate-item "Display Options*Frame2*Frame1(Lighting Attributes)*Frame2*DropDownList2(Lighting)")
(cx-gui-do cx-activate-item "Display Options*PanelButtons*PushButton1(Apply)")
(cx-gui-do cx-set-list-selections "Display Options*Frame2*Frame1(Lighting Attributes)*Frame2*DropDownList2(Lighting)" '( 2))
(cx-gui-do cx-activate-item "Display Options*Frame2*Frame1(Lighting Attributes)*Frame2*DropDownList2(Lighting)")
(cx-gui-do cx-activate-item "Display Options*PanelButtons*PushButton1(Apply)")
(cx-gui-do cx-activate-item "Display Options*PanelButtons*PushButton1(Apply)")
(cx-gui-do cx-set-list-selections "Display Options*Frame2*Frame1(Lighting Attributes)*Frame2*DropDownList2(Lighting)" '( 3))
(cx-gui-do cx-activate-item "Display Options*Frame2*Frame1(Lighting Attributes)*Frame2*DropDownList2(Lighting)")
(cx-gui-do cx-activate-item "Display Options*PanelButtons*PushButton1(Apply)")
(cx-gui-do cx-set-toggle-button2 "Display Options*Frame2*Frame1(Lighting Attributes)*CheckButton1(Lights On)" #f)
(cx-gui-do cx-activate-item "Display Options*Frame2*Frame1(Lighting Attributes)*CheckButton1(Lights On)")
(cx-gui-do cx-activate-item "Display Options*PanelButtons*PushButton1(Apply)")
(cx-gui-do cx-set-toggle-button2 "Display Options*Frame1(Rendering)*CheckButton5(Outer Face Culling)" #t)
(cx-gui-do cx-activate-item "Display Options*Frame1(Rendering)*CheckButton5(Outer Face Culling)")
(cx-gui-do cx-activate-item "Display Options*PanelButtons*PushButton1(Apply)")
(cx-gui-do cx-activate-item "Display Options*PanelButtons*PushButton1(Apply)")
(cx-gui-do cx-set-toggle-button2 "Display Options*Frame1(Rendering)*CheckButton4(Double Buffering)" #f)
(cx-gui-do cx-activate-item "Display Options*Frame1(Rendering)*CheckButton4(Double Buffering)")
(cx-gui-do cx-activate-item "Display Options*PanelButtons*PushButton1(Apply)")
(cx-gui-do cx-activate-item "Display Options*PanelButtons*PushButton1(Apply)")
(cx-gui-do cx-activate-item "Display Options*PanelButtons*PushButton2(Close)")
(cx-gui-do cx-set-list-tree-selections "NavigationPane*Frame2*Table1*List_Tree2" (list "Results|Graphics|Mesh|mesh-1"))
(cx-gui-do cx-list-tree-right-click "NavigationPane*Frame2*Table1*List_Tree2" )
(cx-gui-do cx-activate-item "MenuBar*PopupMenuTree-mesh-1*Display")
(cx-use-window-id 51)
(dolly-camera -98.7531 10.7879 0)
/exit y

Posting ANSYS Product Improvement Program performance data 
Done.
(cx-gui-do cx-activate-item "Question*OK")
Done.
/exit y
(cx-gui-do cx-activate-item "Question*OK")
Auto-Transcript Stop Time:  02:38:47, 24 Nov 2023 
Total Transcript Time: 5 Minute 32 Second.
