/apps/applications/ansys/2023R1/1/default/v231/fluent/fluent23.1.0/bin/fluent -r23.1.0 -t 40 2ddp -g -i /nobackup/scldr/ACRE/CFD_Macro.scm
/apps/applications/ansys/2023R1/1/default/v231/fluent/fluent23.1.0/cortex/lnamd64/cortex.23.1.0 -f fluent -g -i /nobackup/scldr/ACRE/CFD_Macro.scm (fluent "2ddp -pshmem  -host -r23.1.0 -t40 -mpi=intel -path/apps/applications/ansys/2023R1/1/default/v231/fluent -ssh")

Opening input/output transcript to file "/nobackup/scldr/ACRE/fluent-20240108-102215-241779.trn".
Auto-Transcript Start Time:  10:22:15, 08 Jan 2024 
/apps/applications/ansys/2023R1/1/default/v231/fluent/fluent23.1.0/bin/fluent -r23.1.0 2ddp -pshmem -host -t40 -mpi=intel -path/apps/applications/ansys/2023R1/1/default/v231/fluent -ssh -cx d13s9b1.arc4.leeds.ac.uk:37368:45781
Starting /apps/applications/ansys/2023R1/1/default/v231/fluent/fluent23.1.0/lnamd64/2ddp_host/fluent.23.1.0 host -cx d13s9b1.arc4.leeds.ac.uk:37368:45781 "(list (rpsetvar (QUOTE parallel/function) "fluent 2ddp -flux -node -r23.1.0 -t40 -pshmem -mpi=intel -ssh") (rpsetvar (QUOTE parallel/rhost) "") (rpsetvar (QUOTE parallel/ruser) "") (rpsetvar (QUOTE parallel/nprocs_string) "40") (rpsetvar (QUOTE parallel/auto-spawn?) #t) (rpsetvar (QUOTE parallel/trace-level) 0) (rpsetvar (QUOTE parallel/remote-shell) 1) (rpsetvar (QUOTE parallel/path) "/apps/applications/ansys/2023R1/1/default/v231/fluent") (rpsetvar (QUOTE parallel/hostsfile) "") (rpsetvar (QUOTE gpuapp/devices) ""))"

              Welcome to ANSYS Fluent 2023 R1

              Copyright 1987-2023 ANSYS, Inc. All Rights Reserved.
              Unauthorized use, distribution or duplication is prohibited.
              This product is subject to U.S. laws governing export and re-export.
              For full Legal Notice, see documentation.

Build Time: Nov 28 2022 09:30:44 EST  Build Id: 10208  
 
Connected License Server List:	1055@ansys-research.leeds.ac.uk

     --------------------------------------------------------------
     This is an academic version of ANSYS FLUENT. Usage of this product
     license is limited to the terms and conditions specified in your ANSYS
     license form, additional terms section.
     --------------------------------------------------------------
Host spawning Node 0 on machine "d13s9b1.arc4.leeds.ac.uk" (unix).
/apps/applications/ansys/2023R1/1/default/v231/fluent/fluent23.1.0/bin/fluent -r23.1.0 2ddp -flux -node -t40 -pshmem -mpi=intel -ssh -mport 10.12.170.18:10.12.170.18:34703:0
Starting /apps/applications/ansys/2023R1/1/default/v231/fluent/fluent23.1.0/multiport/mpi/lnamd64/intel2021/bin/mpirun --rsh=ssh -f /tmp/fluent-appfile.scldr.242166 -genv FI_PROVIDER tcp -genv FLUENT_ARCH lnamd64 -genv I_MPI_DEBUG 0 -genv I_MPI_ADJUST_REDUCE 2 -genv I_MPI_ADJUST_ALLREDUCE 2 -genv I_MPI_ADJUST_BCAST 8 -genv I_MPI_ADJUST_BARRIER 2 -genv I_MPI_ADJUST_ALLGATHER 2 -genv I_MPI_ADJUST_GATHER 2 -genv I_MPI_ADJUST_ALLTOALL 1 -genv I_MPI_ADJUST_SCATTER 2 -genv I_MPI_ADJUST_SCATTERV 2 -genv I_MPI_ADJUST_ALLGATHERV 2 -genv I_MPI_ADJUST_GATHERV 2 -genv I_MPI_PLATFORM auto -genv PYTHONHOME /apps/applications/ansys/2023R1/1/default/v231/fluent/fluent23.1.0/../../commonfiles/CPython/3_7/linx64/Release/python -genv FLUENT_PROD_DIR /apps/applications/ansys/2023R1/1/default/v231/fluent/fluent23.1.0 -genv FLUENT_AFFINITY 0 -genv I_MPI_PIN enable -genv KMP_AFFINITY disabled -n 40 /apps/applications/ansys/2023R1/1/default/v231/fluent/fluent23.1.0/lnamd64/2ddp_node/fluent_mpi.23.1.0 node -mpiw intel -pic shmem -mport 10.12.170.18:10.12.170.18:34703:0

-----------------------------------------------------------------------------------------
ID     Hostname              Core   O.S.      PID            Vendor                     
-----------------------------------------------------------------------------------------
n0-39  d13s9b1.arc4.leeds.a  40/40  Linux-64  242220-242259  Intel(R) Xeon(R) Gold 6230 
host   d13s9b1.arc4.leeds.a         Linux-64  241976         Intel(R) Xeon(R) Gold 6230 

MPI Option Selected: intel
Selected system interconnect: shared-memory
-----------------------------------------------------------------------------------------


Initializing SGE
Done.
Cleanup script file is /nobackup/scldr/ACRE/cleanup-fluent-d13s9b1.arc4.leeds.ac.uk-241976.sh

Posting ANSYS Product Improvement Program startup data
Done.

Reading journal file /nobackup/scldr/ACRE/CFD_Macro.scm...

> (ti-menu-load-string (format #f "file/read-case /nobackup/scldr/ACRE/M4.00_N2_Pres_5584_Pchm_37.50_Bham_finer/Mesh.msh ok"))
file/read-case /nobackup/scldr/ACRE/M4.00_N2_Pres_5584_Pchm_37.50_Bham_finer/Mesh.msh 
Reading "/nobackup/scldr/ACRE/M4.00_N2_Pres_5584_Pchm_37.50_Bham_finer/Mesh.msh"...

Buffering for file scan...

 5365570 nodes.
 5358815 quadrilateral cells, zone 14.
10710876 2D interior faces, zone 15.
      64 2D pressure-inlet faces, zone 16.
     933 2D wall faces, zone 17.
    1282 2D wall faces, zone 18.
     978 2D wall faces, zone 19.
    3609 2D wall faces, zone 20.
    1307 2D wall faces, zone 21.
    5305 2D axis faces, zone 22.
      30 2D pressure-outlet faces, zone 23.

Building...
     mesh
	auto partitioning mesh by Metis (fast),
	distributing mesh
		parts........................................,
		faces........................................,
		nodes........................................,
		cells........................................,
        bandwidth reduction using Reverse Cuthill-McKee: 127116/444 = 286.297
     materials,
     interface,
     domains,
     zones,
	outlet
	axis
	right_reactor_wall
	top_reactor_wall
	left_reactor_wall
	nozzle_wall
	reservoir_wall
	inlet
	int_fluid
	fluid
     parallel,
Done.
Warning: The use of axis boundary conditions is not appropriate for
         a 2D/3D flow problem. Please consider changing the zone
         type to symmetry or wall, or the problem to axisymmetric.

Warning: The use of axis boundary conditions is not appropriate for
         a 2D/3D flow problem. Please consider changing the zone
         type to symmetry or wall, or the problem to axisymmetric.

okinvalid command [ok]
#t


> (ti-menu-load-string (format #f "/mesh/scale 0.001 0.001"))
/mesh/scale 0.001 0.001#t


> (ti-menu-load-string (format #f "/define/models/axisymmetric yes"))
/define/models/axisymmetric yes#t


> (ti-menu-load-string (format #f "/define/models/solver/pressure-based yes"))
/define/models/solver/pressure-based yes#t
; density-based explicit, pressure-based or density-based-implicit
(ti-menu-load-string (format #f "/define/models/energy yes yes yes"))
/define/models/energy yes yes yes#t
  ; enable energy model?, compute viscout energy dissipation?, Including diffusion at inlets?
(ti-menu-load-string (format #f "/define/models/viscous/kw-sst yes"))
/define/models/viscous/kw-sst yes#t


> (ti-menu-load-string (format #f "(rpsetvar' sst-a1 0.31)"))
(rpsetvar' sst-a1 0.31)
sst-a1
#t
  ; 0.31
(ti-menu-load-string (format #f "(rpsetvar' sst-kappa 0.41)"))
(rpsetvar' sst-kappa 0.41)
sst-kappa
#t
; 0.41
(ti-menu-load-string (format #f "(rpsetvar' sst-beta-i2 0.0828)"))
(rpsetvar' sst-beta-i2 0.0828)
sst-beta-i2
#t
 ; 0.0828
(ti-menu-load-string (format #f "(rpsetvar' sst-beta-i1 0.075)"))
(rpsetvar' sst-beta-i1 0.075)
sst-beta-i1
#t
 ; 0.075
(ti-menu-load-string (format #f "(rpsetvar' sst-sig-w2 1.168)"))
(rpsetvar' sst-sig-w2 1.168)
sst-sig-w2
#t
 ; 1.168
(ti-menu-load-string (format #f "(rpsetvar' sst-sig-w1 2)"))
(rpsetvar' sst-sig-w1 2)
sst-sig-w1
#t
 ; 2
(ti-menu-load-string (format #f "(rpsetvar' sst-sig-k2 1)"))
(rpsetvar' sst-sig-k2 1)
sst-sig-k2
#t
 ; 1
(ti-menu-load-string (format #f "(rpsetvar' sst-sig-k1 1.176)"))
(rpsetvar' sst-sig-k1 1.176)
sst-sig-k1
#t
 ; 1.176
(ti-menu-load-string (format #f "/define/materials/copy fluid nitrogen"))
/define/materials/copy fluid nitrogen
nitrogen copied from database.

#t


> (ti-menu-load-string (format #f "/define/boundary-conditions/fluid fluid yes nitrogen no no no no no no no"))
/define/boundary-conditions/fluid (fluid)
fluid yes nitrogen no no no no no no no#t


> (ti-menu-load-string (format #f "/define/materials delete air"))
/define/materials delete air#t


> (ti-menu-load-string (format #f "/define/materials change-create nitrogen nitrogen yes ideal-gas no no yes sutherland three-coefficient-method 1.663e-05 273.11 106.67 no no no"))
/define/materials change-create nitrogen nitrogen nitrogen is a fluid
yes 
Density
ideal-gas no data required.

no no yes 
Viscosity
sutherland three-coefficient-method 1.663e-05 273.11 106.67 
no no no#t


> (ti-menu-load-string (format #f "/define/models/viscous/turb-compressibility no"))
/define/models/viscous/turb-compressibility no#t
 ; Turning compressbility effects off
(ti-menu-load-string (format #f "/define/boundary-conditions/zone-type inlet pressure-inlet"))
/define/boundary-conditions/zone-type inlet pressure-inlet#t


> (ti-menu-load-string (format #f "/define/boundary-conditions/zone-type outlet pressure-outlet"))
/define/boundary-conditions/zone-type outlet pressure-outlet#t


> (ti-menu-load-string (format #f "/define/boundary-conditions/wall left_reactor_wall 0 no 0 no no no 0 no no no no 0 no 0 no 1"))
/define/boundary-conditions/wall (reservoir_wall nozzle_wall left_reactor_wall top_reactor_wall right_reactor_wall)
left_reactor_wall 0 no 0 no no no 0 no no no no 0 no 0 no 1#t


> (ti-menu-load-string (format #f "/define/boundary-conditions/wall nozzle_wall 0 no 0 no no no 0 no no no no 0 no 0 no 1"))
/define/boundary-conditions/wall (reservoir_wall nozzle_wall left_reactor_wall top_reactor_wall right_reactor_wall)
nozzle_wall 0 no 0 no no no 0 no no no no 0 no 0 no 1#t


> (ti-menu-load-string (format #f "/define/boundary-conditions/wall reservoir_wall 0 no 0 no no no 0 no no no no 0 no 0 no 1"))
/define/boundary-conditions/wall (reservoir_wall nozzle_wall left_reactor_wall top_reactor_wall right_reactor_wall)
reservoir_wall 0 no 0 no no no 0 no no no no 0 no 0 no 1#t


> (ti-menu-load-string (format #f "/define/boundary-conditions/wall top_reactor_wall 0 no 0 no no no 0 no no no no 0 no 0 no 1"))
/define/boundary-conditions/wall (reservoir_wall nozzle_wall left_reactor_wall top_reactor_wall right_reactor_wall)
top_reactor_wall 0 no 0 no no no 0 no no no no 0 no 0 no 1#t


> (ti-menu-load-string (format #f "/define/boundary-conditions/wall right_reactor_wall 0 no 0 no no no 0 no no no no 0 no 0 no 1"))
/define/boundary-conditions/wall (reservoir_wall nozzle_wall left_reactor_wall top_reactor_wall right_reactor_wall)
right_reactor_wall 0 no 0 no no no 0 no no no no 0 no 0 no 1#t


> (ti-menu-load-string (format #f "/define/boundary-conditions/pressure-inlet inlet yes no 5584 no 0 no 295 no yes no no yes 40 1"))
/define/boundary-conditions/pressure-inlet (inlet)
inlet yes no 5584 no 0 no 295 no yes no no yes 40 1#t


> (ti-menu-load-string (format #f "/define/boundary-conditions/pressure-outlet outlet yes no 37.5 no 295 no yes no no yes 1 1 yes no no"))
/define/boundary-conditions/pressure-outlet (outlet)
outlet yes no 37.5 no 295 no yes no no yes 1 1 yes no no#t


> (ti-menu-load-string (format #f "/define/operating-conditions/operating-pressure 0"))
/define/operating-conditions/operating-pressure 0#t
 ; |Value in Pa|
(ti-menu-load-string (format #f "/solve/monitors/residual/convergence-criteria 1e-8 1e-8 1e-8 1e-8 1e-8 1e-8"))
/solve/monitors/residual/convergence-criteria 1e-8 1e-8 1e-8 1e-8 1e-8 1e-8#t


> (ti-menu-load-string (format #f "/solve/set/discretization-scheme/mom 1"))
/solve/set/discretization-scheme/mom 1#t
		; [0 1 4 6] = [First Order, Second Order, QUICK, Third Order]
(ti-menu-load-string (format #f "/solve/set/discretization-scheme/pressure 12"))
/solve/set/discretization-scheme/pressure 12#t
	; [12 10 14 11 13] = [Second, Standard, PRESTO!, Linear, Body Force Weighted]
(ti-menu-load-string (format #f "/solve/set/discretization-scheme/k 1"))
/solve/set/discretization-scheme/k 1#t
		; [0 1 4 6] = [First Order, Second Order, QUICK, Third Order]
(ti-menu-load-string (format #f "/solve/set/discretization-scheme/density 1"))
/solve/set/discretization-scheme/density 1#t
		; [0 1 4 6] = [First Order, Second Order, QUICK, Third Order]
(ti-menu-load-string (format #f "/solve/set/discretization-scheme/omega 1"))
/solve/set/discretization-scheme/omega 1#t
		; [0 1 4 6] = [First Order, Second Order, QUICK, Third Order]
(ti-menu-load-string (format #f "/solve/set/discretization-scheme/temperature 1"))
/solve/set/discretization-scheme/temperature 1#t
	; [0 1 4 6] = [First Order, Second Order, QUICK, Third Order]
(ti-menu-load-string (format #f "/solve/set/flux-type no 0"))
/solve/set/flux-type no 0#t
 				; [0 1], Rhie-Chow Distance, Rhie-Chow momentum
(ti-menu-load-string (format #f "/solve/set/p-v-coupling 24"))
/solve/set/p-v-coupling 24#t
				; [20 21 22 24] = [SIMPLE, SIMPLEC, PISO, Coupled]
(ti-menu-load-string (format #f "/solve/set/warped-face-gradient-correction enable? yes no"))
/solve/set/warped-face-gradient-correction enable? yes  
 Warped-Face Gradient Correction enabled. 
 Options:
 Fast mode 
 Memory saving mode 
no
 Memory saving mode will be used.#t
 ;

;This is just to help convergence, i have left relaxation parameters as default and it seems to converge fine.
(ti-menu-load-string (format #f "/solve/set/high-order-term-relaxation enable? yes"))
/solve/set/high-order-term-relaxation enable? yes#t
; 
; This sets pseudo transient using automating conservative timestepping with a timestep factor of 0.5. This acts as under-relaxation.
(ti-menu-load-string (format #f "/solve/set/pseudo-transient yes yes 1 0.5 0"))
/solve/set/pseudo-transient yes yes 1 0.5 0#t
 ;

; setup report definitions
(ti-menu-load-string (format #f "/solve/report-definitions add max-mach surface-vertexmax field mach-number surface-names axis"))
/solve/report-definitions add max-mach surface-vertexmax field mach-number surface-names axis#t
;
(ti-menu-load-string (format #f "/solve/report-files/add max-mach report-defs max-mach"))
/solve/report-files/add max-mach report-defs max-mach#t
;

(ti-menu-load-string (format #f "/solve/report-definitions add min-temp surface-vertexmin field temperature surface-names axis"))
/solve/report-definitions add min-temp surface-vertexmin field temperature surface-names axis#t
;
(ti-menu-load-string (format #f "/solve/report-files/add min-temp report-defs min-temp"))
/solve/report-files/add min-temp report-defs min-temp#t
;

(ti-menu-load-string (format #f "/solve/report-files/edit max-mach file-name M4.00_N2_Pres_5584_Pchm_37.50_Bham_finer/max-mach-convergence.txt"))
/solve/report-files/edit max-mach file-name M4.00_N2_Pres_5584_Pchm_37.50_Bham_finer/max-mach-convergence.txt#t


> (ti-menu-load-string (format #f "/solve/report-files/edit min-temp file-name M4.00_N2_Pres_5584_Pchm_37.50_Bham_finer/min-temp-convergence.txt"))
/solve/report-files/edit min-temp file-name M4.00_N2_Pres_5584_Pchm_37.50_Bham_finer/min-temp-convergence.txt#t


> 
adjoint/                mesh/                   report/
define/                 parallel/               server/
display/                plot/                   solve/
exit                    preferences/            surface/
file/                   print-license-usage     views/

> 
adjoint/                mesh/                   report/
define/                 parallel/               server/
display/                plot/                   solve/
exit                    preferences/            surface/
file/                   print-license-usage     views/

> ; Initialisation settings and number of itterations
(ti-menu-load-string (format #f "/solve/init/hyb-initialization"))
/solve/init/hyb-initialization
Initialize using the hybrid initialization method.

Checking case topology... 
-This case has both inlets & outlets 
-Pressure information is available at the boundaries

	iter		scalar-0		scalar-1

	1		1.000000e+00	1.000000e+00
	2		3.186146e-07	7.402992e-07
	3		7.396106e-08	8.859357e-08
	4		3.312604e-08	3.474061e-08
	5		1.892044e-08	2.061198e-08
	6		1.301532e-08	1.587053e-08
	7		9.684076e-09	1.315490e-08
	8		7.431588e-09	1.096505e-08
	9		5.801789e-09	9.113696e-09
	10		4.571977e-09	7.539563e-09

Hybrid initialization is done.
#t


> (ti-menu-load-string (format #f "solve init fmg y"))
solve init fmg y
Creating multigrid levels... 
 Grid Level  0: 5358815 cells, 10724384 faces, 5365570 nodes;  40 clusters
 Grid Level  1: 1344531 cells, 5380092 faces, 5365570 nodes;  40 clusters
 Grid Level  1: 1344531 cells, 2949702 faces,      0 nodes
 Grid Level  2: 404929 cells, 3048917 faces, 5365570 nodes;  40 clusters
 Grid Level  2: 404929 cells, 1034039 faces,      0 nodes
 Grid Level  3: 126888 cells, 1841543 faces, 5365570 nodes;  40 clusters
 Grid Level  3: 126888 cells, 352411 faces,      0 nodes
 Grid Level  4:  41464 cells, 1165867 faces, 5365570 nodes;  40 clusters
 Grid Level  4:  41464 cells, 123741 faces,      0 nodes
 Grid Level  5:  14009 cells, 763066 faces, 5365570 nodes;  40 clusters
 Grid Level  5:  14009 cells,  46261 faces,      0 nodes
Done.


FMG: Converge FAS on level 5


FMG: Converge FAS on level 4


FMG: Converge FAS on level 3


FMG: Converge FAS on level 2


FMG: Converge FAS on level 1
0.->1.->2.->3.->4.->5.<<<<<

FMG: Initialize flow for Segregated solution.. . end 
#t


> 
adjoint/                mesh/                   report/
define/                 parallel/               server/
display/                plot/                   solve/
exit                    preferences/            surface/
file/                   print-license-usage     views/

> (ti-menu-load-string (format #f "/mesh/adapt/cell-registers/add yplusrefine type yplus-ystar max-allowed 0.5 min-allowed 0.25 q () q () q ()"))
/mesh/adapt/cell-registers/add yplusrefine type yplus-ystar max-allowed 0.5 min-allowed 0.25 q ()
 q ()
()
 q ()
()
#t


> (ti-menu-load-string (format #f "/mesh/adapt/manage-criteria/add criteria1 type expression refinement-expression \"yplusrefine\" "))
/mesh/adapt/manage-criteria/add criteria1 type expression refinement-expression "yplusrefine" #t


> (ti-menu-load-string (format #f "/mesh/adapt/manage-criteria/edit criteria1 frequency 250"))
/mesh/adapt/manage-criteria/edit criteria1 frequency 250#t


> 
adjoint/                mesh/                   report/
define/                 parallel/               server/
display/                plot/                   solve/
exit                    preferences/            surface/
file/                   print-license-usage     views/

> ;(ti-menu-load-string (format #f "/mesh/adapt/adapt-mesh"))
;(ti-menu-load-string (format #f "/solve/iterate 50"))
;(ti-menu-load-string (format #f "/mesh/adapt/adapt-mesh"))
;(ti-menu-load-string (format #f "/solve/iterate 50"))
;(ti-menu-load-string (format #f "/mesh/adapt/adapt-mesh"))
;(ti-menu-load-string (format #f "/solve/iterate 50"))
;(ti-menu-load-string (format #f "/mesh/adapt/adapt-mesh"))
;(ti-menu-load-string (format #f "/solve/iterate 50"))
;(ti-menu-load-string (format #f "/mesh/adapt/adapt-mesh"))
;(ti-menu-load-string (format #f "/solve/iterate 50"))
;(ti-menu-load-string (format #f "/mesh/adapt/adapt-mesh"))

adjoint/                mesh/                   report/
define/                 parallel/               server/
display/                plot/                   solve/
exit                    preferences/            surface/
file/                   print-license-usage     views/

> (ti-menu-load-string (format #f "/solve/iterate 1000"))
/solve/iterate 1000
  iter  continuity  x-velocity  y-velocity      energy           k       omega     time/iter

Adapting mesh...
done.
     1  1.0000e+00  5.8126e-05  2.6740e-05  1.2072e-04  8.7849e-02  8.1612e-02  1:26:25  999
     2  6.2547e-01  3.4465e-05  1.7069e-05  7.4319e-05  6.1484e-02  5.6427e-02  1:17:47  998
        Stabilizing pressure coupled to enhance linear solver robustness.
     3  4.1373e-01  2.4073e-05  1.3056e-05  5.8824e-05  4.2168e-02  4.0980e-02  1:18:34  997
     4  2.9551e-01  1.9371e-05  1.0952e-05  4.8855e-05  2.8679e-02  2.9658e-02  1:12:10  996
        Stabilizing pressure coupled to enhance linear solver robustness.
     5  2.2285e-01  1.7074e-05  9.4692e-06  4.1161e-05  1.9041e-02  2.3736e-02  1:12:15  995
        Stabilizing pressure coupled to enhance linear solver robustness.
     6  1.6990e-01  1.5598e-05  8.4542e-06  3.5350e-05  1.2018e-02  2.0539e-02  1:15:56  994
     7  1.3542e-01  1.4420e-05  7.7609e-06  3.0676e-05  7.1654e-03  1.6532e-02  1:10:33  993
        Stabilizing pressure coupled to enhance linear solver robustness.
     8  1.1878e-01  1.3032e-05  7.2617e-06  2.7256e-05  4.5951e-03  2.4730e-02  1:16:15  992
     9  1.0885e-01  1.1475e-05  6.7231e-06  2.3516e-05  3.8502e-03  2.6711e-02  1:13:18  991
        Stabilizing pressure coupled to enhance linear solver robustness.
    10  1.1081e-01  9.9985e-06  6.2482e-06  2.1426e-05  3.5103e-03  2.4842e-02  1:15:46  990
    11  1.1086e-01  8.4562e-06  5.8419e-06  2.0389e-05  3.2737e-03  2.3128e-02  1:13:18  989
        Stabilizing pressure coupled to enhance linear solver robustness.

  iter  continuity  x-velocity  y-velocity      energy           k       omega     time/iter
    12  1.1269e-01  7.5288e-06  5.6194e-06  1.9646e-05  2.9484e-03  2.5598e-02  1:18:15  988
        Stabilizing pressure coupled to enhance linear solver robustness.
    13  1.1201e-01  6.9236e-06  5.3765e-06  1.8701e-05  2.4498e-03  2.5209e-02  1:20:54  987
        Stabilizing pressure coupled to enhance linear solver robustness.
    14  1.0747e-01  6.6529e-06  5.0665e-06  1.8465e-05  1.9934e-03  2.5048e-02  1:22:40  986
        Stabilizing pressure coupled to enhance linear solver robustness.
    15  1.0381e-01  6.5452e-06  4.8471e-06  1.8202e-05  1.5495e-03  2.5534e-02  1:26:41  985
        Stabilizing pressure coupled to enhance linear solver robustness.
    16  9.9394e-02  6.2129e-06  4.5918e-06  1.7676e-05  1.1164e-03  2.3346e-02  1:29:21  984
        Stabilizing pressure coupled to enhance linear solver robustness.
    17  9.6698e-02  5.7775e-06  4.3330e-06  1.7884e-05  8.0951e-04  1.8549e-02  1:37:45  983
    18  9.8947e-02  5.4619e-06  4.2158e-06  1.7140e-05  5.4131e-04  1.5398e-02  1:34:15  982
    19  9.7459e-02  4.9607e-06  3.8180e-06  1.5821e-05  3.7580e-04  1.2620e-02  1:28:09  981
    20  9.1360e-02  4.2854e-06  3.3769e-06  1.4910e-05  2.5567e-04  1.1277e-02  1:25:08  980
    21  8.5550e-02  3.8471e-06  2.9263e-06  1.4054e-05  1.8405e-04  1.1665e-02  1:21:52  979
    22  7.7852e-02  3.2927e-06  2.4749e-06  1.3312e-05  1.3237e-04  1.0574e-02  1:19:19  978
        Stabilizing pressure coupled to enhance linear solver robustness.

  iter  continuity  x-velocity  y-velocity      energy           k       omega     time/iter
    23  7.1366e-02  2.8186e-06  2.0343e-06  1.2385e-05  9.8604e-05  1.0456e-02  1:26:10  977
    24  6.7392e-02  2.3817e-06  1.6892e-06  1.1551e-05  7.4475e-05  8.5806e-03  1:23:28  976
    25  6.6648e-02  2.0034e-06  1.4058e-06  1.0734e-05  5.6897e-05  8.5375e-03  1:22:01  975
    26  6.7288e-02  1.6823e-06  1.1801e-06  9.7941e-06  4.4977e-05  7.0729e-03  1:20:35  974
    27  6.6829e-02  1.4288e-06  1.0070e-06  8.7910e-06  3.6923e-05  6.5465e-03  1:18:42  973
    28  6.6386e-02  1.2436e-06  8.9953e-07  7.9658e-06  3.0447e-05  4.9142e-03  1:17:33  972
    29  6.2154e-02  1.1323e-06  7.8460e-07  7.1899e-06  2.4848e-05  3.6127e-03  1:16:39  971
    30  5.5467e-02  1.0659e-06  6.9088e-07  6.5291e-06  2.0220e-05  3.1256e-03  1:16:30  970
    31  4.9550e-02  1.0145e-06  6.1937e-07  5.9064e-06  1.6809e-05  3.4123e-03  1:17:33  969
    32  4.4672e-02  9.6163e-07  5.6193e-07  5.3307e-06  1.4403e-05  3.6129e-03  1:18:03  968
    33  4.1941e-02  9.0343e-07  5.1645e-07  4.8159e-06  1.2740e-05  3.7519e-03  1:18:28  967

  iter  continuity  x-velocity  y-velocity      energy           k       omega     time/iter
    34  4.0748e-02  8.3552e-07  4.7308e-07  4.3562e-06  1.1478e-05  3.7495e-03  1:19:03  966
    35  4.0674e-02  7.6306e-07  4.3413e-07  3.9596e-06  1.0408e-05  3.5902e-03  1:19:14  965
    36  4.0177e-02  6.8863e-07  3.8760e-07  3.5759e-06  9.6317e-06  3.5354e-03  1:21:52  964
        Stabilizing pressure coupled to enhance linear solver robustness.
    37  3.9003e-02  6.1401e-07  3.4457e-07  3.2827e-06  9.0745e-06  3.1886e-03  1:37:35  963
        Stabilizing pressure coupled to enhance linear solver robustness.
    38  4.0537e-02  5.4398e-07  3.1506e-07  3.1425e-06  8.5523e-06  2.8233e-03  1:54:49  962
        Stabilizing pressure coupled to enhance linear solver robustness.
    39  4.0150e-02  4.8402e-07  2.9684e-07  2.9571e-06  7.9337e-06  2.4254e-03  2:19:46  961
        Stabilizing pressure coupled to enhance linear solver robustness.
    40  3.9730e-02  4.2557e-07  2.7482e-07  2.5972e-06  6.6069e-06  2.2659e-03  2:21:38  960
        Stabilizing pressure coupled to enhance linear solver robustness.
    41  3.8066e-02  3.6623e-07  2.4163e-07  2.3459e-06  5.9271e-06  2.0621e-03  2:21:06  959
        Stabilizing pressure coupled to enhance linear solver robustness.
    42  3.7801e-02  3.1752e-07  2.1918e-07  2.1903e-06  5.3369e-06  1.8167e-03  2:19:09  958
        Stabilizing pressure coupled to enhance linear solver robustness.
    43  3.6886e-02  2.8664e-07  2.1489e-07  1.9989e-06  5.0000e-06  1.7234e-03  2:27:11  957
        Stabilizing pressure coupled to enhance linear solver robustness.
    44  3.6370e-02  2.5322e-07  1.9347e-07  1.8516e-06  4.5138e-06  1.6127e-03  2:42:48  956
        Stabilizing pressure coupled to enhance linear solver robustness.

  iter  continuity  x-velocity  y-velocity      energy           k       omega     time/iter
    45  3.4174e-02  2.2211e-07  1.7312e-07  1.7059e-06  4.2011e-06  1.5630e-03  2:44:40  955
        Stabilizing pressure coupled to enhance linear solver robustness.
    46  3.2750e-02  2.0539e-07  1.6916e-07  1.5411e-06  3.6704e-06  1.4577e-03  2:36:05  954
        Stabilizing pressure coupled to enhance linear solver robustness.
    47  3.0356e-02  1.8933e-07  1.4711e-07  1.4244e-06  3.6838e-06  1.4268e-03  2:43:50  953
        Stabilizing pressure coupled to enhance linear solver robustness.
    48  2.8843e-02  1.8587e-07  1.3357e-07  1.3212e-06  3.4745e-06  1.2816e-03  2:55:25  952
        Stabilizing pressure coupled to enhance linear solver robustness.
    49  2.8527e-02  1.8242e-07  1.2966e-07  1.2261e-06  3.0890e-06  1.1503e-03  2:43:07  951
        Stabilizing pressure coupled to enhance linear solver robustness.
    50  2.6968e-02  1.7457e-07  1.1763e-07  1.1408e-06  2.9994e-06  1.0816e-03  2:44:24  950
        Stabilizing pressure coupled to enhance linear solver robustness.
    51  2.6224e-02  1.6825e-07  1.0845e-07  1.0504e-06  2.9417e-06  1.0512e-03  2:30:07  949
    52  2.8918e-02  1.7746e-07  1.0692e-07  9.9008e-07  2.8267e-06  1.0142e-03  2:13:26  948
    53  2.6633e-02  1.6138e-07  9.5931e-08  9.2377e-07  2.6811e-06  1.0219e-03  2:01:20  947
        Stabilizing pressure coupled to enhance linear solver robustness.
    54  2.5509e-02  1.4855e-07  8.8700e-08  8.7701e-07  2.7169e-06  1.0277e-03  2:09:50  946
        Stabilizing pressure coupled to enhance linear solver robustness.
    55  2.4906e-02  1.3712e-07  8.3269e-08  8.3111e-07  2.5648e-06  1.0655e-03  2:13:01  945
        Stabilizing pressure coupled to enhance linear solver robustness.

  iter  continuity  x-velocity  y-velocity      energy           k       omega     time/iter
    56  2.4201e-02  1.2552e-07  7.5456e-08  7.7485e-07  2.3893e-06  1.1083e-03  2:10:09  944
        Stabilizing pressure coupled to enhance linear solver robustness.
    57  2.4539e-02  1.1648e-07  7.3982e-08  7.2939e-07  2.3232e-06  1.1770e-03  2:06:59  943
        Stabilizing pressure coupled to enhance linear solver robustness.
    58  2.4761e-02  1.0926e-07  7.3856e-08  7.0010e-07  2.2521e-06  1.2213e-03  2:02:52  942
        Stabilizing pressure coupled to enhance linear solver robustness.
    59  2.4119e-02  1.0390e-07  6.8316e-08  6.5996e-07  2.1953e-06  1.2561e-03  2:01:02  941
        Stabilizing pressure coupled to enhance linear solver robustness.
    60  2.3604e-02  1.0002e-07  6.4057e-08  6.3800e-07  2.2843e-06  1.3392e-03  2:16:18  940
        Stabilizing pressure coupled to enhance linear solver robustness.
    61  2.3379e-02  9.5656e-08  6.1452e-08  6.1338e-07  2.2258e-06  1.4044e-03  2:20:55  939
        Stabilizing pressure coupled to enhance linear solver robustness.
    62  2.3464e-02  9.1207e-08  5.9472e-08  6.0692e-07  2.3661e-06  1.4180e-03  2:24:09  938
        Stabilizing pressure coupled to enhance linear solver robustness.
    63  2.3429e-02  9.1159e-08  6.2051e-08  5.6718e-07  2.1604e-06  1.4163e-03  2:26:56  937
        Stabilizing pressure coupled to enhance linear solver robustness.
    64  2.3970e-02  8.6490e-08  6.1392e-08  5.3986e-07  2.0436e-06  1.4046e-03  2:27:24  936
        Stabilizing pressure coupled to enhance linear solver robustness.
    65  2.3421e-02  8.3757e-08  5.6711e-08  5.1173e-07  1.9798e-06  1.4231e-03  2:24:09  935
        Stabilizing pressure coupled to enhance linear solver robustness.
    66  2.3726e-02  8.1785e-08  5.7566e-08  4.9193e-07  2.0739e-06  1.3780e-03  2:32:32  934
        Stabilizing pressure coupled to enhance linear solver robustness.

  iter  continuity  x-velocity  y-velocity      energy           k       omega     time/iter
    67  2.2902e-02  7.9380e-08  5.2352e-08  4.6953e-07  1.9691e-06  1.4212e-03  2:33:32  933
        Stabilizing pressure coupled to enhance linear solver robustness.
    68  2.3110e-02  7.5339e-08  5.1389e-08  4.3602e-07  1.8577e-06  1.4312e-03  2:26:22  932
        Stabilizing pressure coupled to enhance linear solver robustness.
    69  2.2761e-02  7.2106e-08  4.8814e-08  4.2426e-07  1.9283e-06  1.3938e-03  2:44:01  931
        Stabilizing pressure coupled to enhance linear solver robustness.
    70  2.3272e-02  6.9212e-08  5.0800e-08  4.0563e-07  1.8322e-06  1.3879e-03  2:37:50  930
        Stabilizing pressure coupled to enhance linear solver robustness.
    71  2.3157e-02  6.5968e-08  4.9665e-08  3.8999e-07  1.8548e-06  1.3605e-03  2:42:32  929
        Stabilizing pressure coupled to enhance linear solver robustness.
    72  2.2753e-02  6.3860e-08  4.6349e-08  3.6615e-07  1.7223e-06  1.3372e-03  2:34:29  928
        Stabilizing pressure coupled to enhance linear solver robustness.
    73  2.2325e-02  6.1332e-08  4.4378e-08  3.5062e-07  1.7801e-06  1.3072e-03  2:41:04  927
        Stabilizing pressure coupled to enhance linear solver robustness.
    74  2.2207e-02  5.9195e-08  4.2430e-08  3.4094e-07  1.7536e-06  1.2950e-03  2:56:00  926
    75  2.2401e-02  5.6370e-08  4.1944e-08  3.2824e-07  1.7358e-06  1.2911e-03  2:43:21  925
    76  2.5047e-02  7.8600e-08  4.7497e-08  3.1780e-07  1.6127e-06  1.2773e-03  2:24:27  924
    77  2.3488e-02  6.6122e-08  4.3432e-08  3.0234e-07  1.5515e-06  1.2372e-03  2:11:25  923
        Stabilizing pressure coupled to enhance linear solver robustness.

  iter  continuity  x-velocity  y-velocity      energy           k       omega     time/iter
    78  2.2487e-02  5.7732e-08  4.1659e-08  2.9114e-07  1.5452e-06  1.2581e-03  2:14:14  922
        Stabilizing pressure coupled to enhance linear solver robustness.
    79  2.1992e-02  5.3020e-08  3.9610e-08  2.8992e-07  1.5639e-06  1.2870e-03  2:18:26  921
        Stabilizing pressure coupled to enhance linear solver robustness.
    80  2.1592e-02  4.9950e-08  3.6081e-08  2.7549e-07  1.4489e-06  1.3226e-03  2:16:05  920
        Stabilizing pressure coupled to enhance linear solver robustness.
    81  2.2051e-02  4.6917e-08  3.8397e-08  2.7434e-07  1.4883e-06  1.3176e-03  2:23:47  919
    82  2.1473e-02  4.5232e-08  3.4864e-08  3.9479e-07  1.7096e-06  1.3359e-03  2:16:45  918
    83  4.6207e-02  1.7670e-07  5.9111e-08  3.0949e-07  1.7565e-06  1.2880e-03  2:01:30  917
    84  3.6849e-02  1.3567e-07  4.7639e-08  2.6828e-07  1.8113e-06  1.2608e-03  1:51:17  916
    85  2.9378e-02  1.2081e-07  4.2570e-08  2.5888e-07  1.7123e-06  1.2982e-03  1:43:42  915
    86  2.6255e-02  1.0978e-07  4.3559e-08  2.4467e-07  1.4206e-06  1.2971e-03  1:38:44  914
        Stabilizing pressure coupled to enhance linear solver robustness.
    87  2.3803e-02  9.9982e-08  3.9550e-08  2.4268e-07  1.3540e-06  1.2806e-03  1:49:49  913
        Stabilizing pressure coupled to enhance linear solver robustness.
    88  2.3056e-02  9.1351e-08  3.7970e-08  2.2926e-07  1.2377e-06  1.2751e-03  1:48:20  912
        Stabilizing pressure coupled to enhance linear solver robustness.

  iter  continuity  x-velocity  y-velocity      energy           k       omega     time/iter
    89  2.2606e-02  8.3258e-08  3.6189e-08  2.2466e-07  1.2228e-06  1.2819e-03  1:50:07  911
        Stabilizing pressure coupled to enhance linear solver robustness.
    90  2.1854e-02  7.6286e-08  3.3272e-08  2.2252e-07  1.2499e-06  1.2380e-03  2:05:05  910
        Stabilizing pressure coupled to enhance linear solver robustness.
    91  2.1961e-02  6.9683e-08  3.5214e-08  2.1862e-07  1.1973e-06  1.2137e-03  2:02:08  909
        Stabilizing pressure coupled to enhance linear solver robustness.
    92  2.1279e-02  6.3248e-08  3.2542e-08  2.1654e-07  1.1889e-06  1.1895e-03  2:04:20  908
        Stabilizing pressure coupled to enhance linear solver robustness.
    93  2.0831e-02  5.7733e-08  3.1802e-08  2.0176e-07  1.1029e-06  1.1577e-03  1:59:38  907
        Stabilizing pressure coupled to enhance linear solver robustness.
    94  2.0470e-02  5.2904e-08  2.9611e-08  1.9664e-07  1.0647e-06  1.1097e-03  1:56:03  906
        Stabilizing pressure coupled to enhance linear solver robustness.
    95  2.0053e-02  4.9223e-08  2.8738e-08  1.9458e-07  1.1060e-06  1.0972e-03  1:56:16  905
        Stabilizing pressure coupled to enhance linear solver robustness.
    96  2.0054e-02  4.5976e-08  2.9009e-08  1.8687e-07  1.0280e-06  1.0853e-03  1:51:38  904
        Stabilizing pressure coupled to enhance linear solver robustness.
    97  1.9679e-02  4.2730e-08  2.7836e-08  1.9110e-07  1.1089e-06  1.0390e-03  2:01:27  903
        Stabilizing pressure coupled to enhance linear solver robustness.
    98  1.9481e-02  3.9959e-08  2.7625e-08  1.7478e-07  1.0042e-06  1.0094e-03  1:56:08  902
        Stabilizing pressure coupled to enhance linear solver robustness.
    99  1.9329e-02  3.7541e-08  2.5827e-08  1.8072e-07  1.1047e-06  9.7086e-04  2:15:14  901
        Stabilizing pressure coupled to enhance linear solver robustness.

  iter  continuity  x-velocity  y-velocity      energy           k       omega     time/iter
   100  1.8964e-02  3.5427e-08  2.4464e-08  1.8140e-07  1.1097e-06  9.8952e-04  2:25:11  900
        Stabilizing pressure coupled to enhance linear solver robustness.
   101  1.9015e-02  3.3258e-08  2.6371e-08  1.8902e-07  1.0281e-06  9.3013e-04  2:18:50  899
        Stabilizing pressure coupled to enhance linear solver robustness.
   102  1.9221e-02  3.6453e-08  3.2066e-08  1.7845e-07  1.0552e-06  8.7646e-04  2:27:19  898
        Stabilizing pressure coupled to enhance linear solver robustness.
   103  1.8903e-02  3.1720e-08  2.6887e-08  1.7064e-07  1.0838e-06  9.3804e-04  2:31:32  897
        Stabilizing pressure coupled to enhance linear solver robustness.
   104  1.8520e-02  2.8009e-08  2.2559e-08  1.6760e-07  1.0934e-06  9.4095e-04  2:42:03  896
   105  1.8344e-02  2.5248e-08  2.0943e-08  2.1922e-07  1.3030e-06  9.4139e-04  2:31:11  895
   106  3.8115e-02  1.3828e-07  4.1503e-08  1.8877e-07  1.1938e-06  9.1017e-04  2:14:25  894
   107  2.9528e-02  1.0835e-07  3.1853e-08  1.6514e-07  1.3181e-06  8.9010e-04  2:02:37  893
   108  2.3578e-02  9.1549e-08  2.9052e-08  1.5317e-07  1.1798e-06  9.0488e-04  1:53:40  892
   109  2.0678e-02  7.8833e-08  2.4799e-08  1.4097e-07  1.0336e-06  9.3424e-04  1:47:04  891
   110  1.9579e-02  6.9622e-08  2.2941e-08  1.3379e-07  9.6520e-07  9.3945e-04  1:41:59  890
        Stabilizing pressure coupled to enhance linear solver robustness.

  iter  continuity  x-velocity  y-velocity      energy           k       omega     time/iter
   111  1.9160e-02  6.2235e-08  2.2248e-08  1.3507e-07  9.9592e-07  9.4073e-04  1:51:59  889
        Stabilizing pressure coupled to enhance linear solver robustness.
   112  1.8834e-02  5.5201e-08  2.1025e-08  1.3275e-07  9.9582e-07  9.4810e-04  2:03:41  888
        Stabilizing pressure coupled to enhance linear solver robustness.
   113  1.8515e-02  4.8532e-08  1.9635e-08  1.2592e-07  9.7916e-07  9.6526e-04  1:58:46  887
        Stabilizing pressure coupled to enhance linear solver robustness.
   114  1.7923e-02  4.3264e-08  1.7232e-08  1.1440e-07  8.7517e-07  9.4801e-04  1:51:47  886
        Stabilizing pressure coupled to enhance linear solver robustness.
   115  1.7826e-02  3.9164e-08  1.7439e-08  1.0929e-07  8.2979e-07  9.1542e-04  1:46:20  885
        Stabilizing pressure coupled to enhance linear solver robustness.
   116  1.7483e-02  3.6090e-08  1.7358e-08  1.0677e-07  8.0441e-07  9.1991e-04  1:41:52  884
        Stabilizing pressure coupled to enhance linear solver robustness.
   117  1.7244e-02  3.3346e-08  1.6922e-08  5.2775e-06  1.1715e-06  6.2699e-04  1:39:20  883
   118  1.4867e-01  6.6942e-07  2.3843e-07  6.8661e-07  1.3792e-06  7.5452e-04  1:29:00  882
   119  9.4480e-02  2.6243e-07  6.9689e-08  4.2910e-07  3.5871e-06  9.0287e-04  1:25:25  881
   120  7.6252e-02  2.5215e-07  6.8924e-08  3.9368e-07  3.0874e-06  1.0122e-03  1:24:18  880
   121  5.6480e-02  2.2135e-07  7.4410e-08  4.7419e-07  2.6053e-06  9.9341e-04  1:23:49  879

  iter  continuity  x-velocity  y-velocity      energy           k       omega     time/iter
   122  5.1742e-02  2.1985e-07  8.3577e-08  4.3421e-07  2.1880e-06  9.8888e-04  1:21:17  878
   123  4.5765e-02  1.9635e-07  7.2541e-08  4.2666e-07  1.9075e-06  9.4840e-04  1:19:47  877
   124  4.6280e-02  1.9361e-07  7.4871e-08  3.9875e-07  1.7554e-06  9.8932e-04  1:17:52  876
   125  4.1335e-02  1.7818e-07  6.5927e-08  3.5009e-07  1.6119e-06  9.7124e-04  1:16:48  875
   126  3.9484e-02  1.6885e-07  6.6559e-08  3.1504e-07  1.4816e-06  9.9188e-04  1:15:14  874
   127  3.8565e-02  1.5936e-07  6.2480e-08  3.1703e-07  1.3879e-06  9.9482e-04  1:14:00  873
   128  3.7140e-02  1.4800e-07  6.0164e-08  2.8322e-07  1.3216e-06  9.9215e-04  1:12:58  872
   129  3.5440e-02  1.3993e-07  5.6399e-08  2.7112e-07  1.2380e-06  9.8123e-04  1:12:09  871
   130  3.4300e-02  1.3205e-07  5.3017e-08  2.5910e-07  1.1687e-06  9.6934e-04  1:11:29  870
   131  3.2909e-02  1.2488e-07  5.1469e-08  2.4531e-07  1.1221e-06  9.5232e-04  1:10:59  869
   132  3.2385e-02  1.1889e-07  4.8763e-08  2.3431e-07  1.0821e-06  9.2901e-04  1:10:28  868

  iter  continuity  x-velocity  y-velocity      energy           k       omega     time/iter
   133  3.1282e-02  1.1230e-07  4.5338e-08  2.2567e-07  1.0847e-06  9.0326e-04  1:10:39  867
   134  3.0245e-02  1.0641e-07  4.1468e-08  2.1410e-07  1.0504e-06  8.7428e-04  1:11:26  866
   135  2.9254e-02  9.9580e-08  3.7362e-08  2.0532e-07  1.0302e-06  8.4431e-04  1:12:40  865
   136  2.7560e-02  9.3411e-08  3.4035e-08  1.9314e-07  1.0002e-06  8.1348e-04  1:13:27  864
   137  2.7009e-02  8.6911e-08  3.1302e-08  1.8556e-07  9.8529e-07  7.8466e-04  1:14:18  863
   138  2.5341e-02  8.0904e-08  2.8936e-08  1.7573e-07  9.4811e-07  7.5709e-04  1:14:50  862
   139  2.4447e-02  7.4071e-08  2.7021e-08  1.7252e-07  9.2382e-07  7.3186e-04  1:15:10  861
   140  2.2975e-02  6.8631e-08  2.5499e-08  1.6467e-07  8.8515e-07  7.1746e-04  1:15:35  860
   141  2.1917e-02  6.2321e-08  2.3743e-08  1.6219e-07  8.5517e-07  6.9683e-04  1:15:53  859
   142  2.0733e-02  5.7496e-08  2.2783e-08  1.5776e-07  8.2814e-07  6.8657e-04  1:16:18  858
   143  1.9748e-02  5.3111e-08  2.1307e-08  1.5516e-07  8.0371e-07  6.7410e-04  1:16:23  857

  iter  continuity  x-velocity  y-velocity      energy           k       omega     time/iter
   144  1.8975e-02  4.9522e-08  2.0337e-08  1.5189e-07  7.7747e-07  6.6836e-04  1:16:23  856
   145  1.8250e-02  4.6990e-08  1.9161e-08  1.4892e-07  7.5482e-07  6.6986e-04  1:16:41  855
   146  1.7686e-02  4.4956e-08  1.8467e-08  1.4600e-07  7.3149e-07  6.7892e-04  1:16:39  854
   147  1.7104e-02  4.3573e-08  1.7763e-08  1.4374e-07  7.1659e-07  6.9472e-04  1:16:49  853
   148  1.6664e-02  4.2698e-08  1.7274e-08  1.4194e-07  7.0247e-07  7.1633e-04  1:16:40  852
   149  1.6284e-02  4.1975e-08  1.6899e-08  1.4084e-07  6.8923e-07  7.4293e-04  1:16:30  851
   150  1.5939e-02  4.1367e-08  1.6605e-08  1.4085e-07  6.7801e-07  7.7395e-04  1:16:28  850
   151  1.5637e-02  4.0629e-08  1.6235e-08  1.4136e-07  6.7071e-07  8.0713e-04  1:16:20  849
   152  1.5371e-02  3.9739e-08  1.5798e-08  1.4164e-07  6.6366e-07  8.4274e-04  1:16:13  848
   153  1.5581e-02  4.0714e-08  1.5981e-08  1.4097e-07  6.5676e-07  8.7953e-04  1:16:07  847
        Stabilizing pressure coupled to enhance linear solver robustness.
   154  1.5161e-02  3.8200e-08  1.5448e-08  1.4366e-07  6.9496e-07  9.1515e-04  1:33:07  846
        Stabilizing pressure coupled to enhance linear solver robustness.

  iter  continuity  x-velocity  y-velocity      energy           k       omega     time/iter
   155  1.4882e-02  3.5960e-08  1.5012e-08  1.5264e-07  6.5648e-07  9.5389e-04  1:34:15  845
   156  1.4915e-02  3.7951e-08  1.9820e-08  1.4360e-07  6.7055e-07  9.8151e-04  1:34:12  844
   157  1.4563e-02  3.3999e-08  1.6462e-08  1.3699e-07  6.5436e-07  1.0086e-03  1:33:47  843
   158  1.4410e-02  3.1092e-08  1.4878e-08  1.3233e-07  6.4427e-07  1.0439e-03  1:33:03  842
        Stabilizing pressure coupled to enhance linear solver robustness.
   159  1.4312e-02  2.8686e-08  1.4034e-08  1.4280e-07  7.5380e-07  1.0664e-03  2:08:49  841
        Stabilizing pressure coupled to enhance linear solver robustness.
   160  1.4405e-02  3.0158e-08  1.8923e-08  1.3779e-07  7.0282e-07  1.0856e-03  2:12:40  840
        Stabilizing pressure coupled to enhance linear solver robustness.
   161  1.4228e-02  2.5718e-08  1.5446e-08  1.3028e-07  6.7828e-07  1.1004e-03  2:32:15  839
        Stabilizing pressure coupled to enhance linear solver robustness.
   162  1.4091e-02  2.2623e-08  1.3289e-08  1.2835e-07  6.5696e-07  1.1097e-03  2:29:58  838
        Stabilizing pressure coupled to enhance linear solver robustness.
   163  1.4093e-02  2.1808e-08  1.6493e-08  1.2027e-07  6.3756e-07  1.1166e-03  2:41:37  837
        Stabilizing pressure coupled to enhance linear solver robustness.
   164  1.3916e-02  1.9590e-08  1.4490e-08  1.1509e-07  6.1587e-07  1.1193e-03  2:34:35  836
        Stabilizing pressure coupled to enhance linear solver robustness.
   165  1.3817e-02  1.7666e-08  1.2342e-08  1.1150e-07  6.0767e-07  1.1196e-03  2:35:42  835
        Stabilizing pressure coupled to enhance linear solver robustness.

  iter  continuity  x-velocity  y-velocity      energy           k       omega     time/iter
   166  1.3716e-02  1.6173e-08  1.0852e-08  1.0862e-07  5.7987e-07  1.1075e-03  2:32:32  834
        Stabilizing pressure coupled to enhance linear solver robustness.
   167  1.3639e-02  1.4892e-08  9.8585e-09  1.0650e-07  5.6751e-07  1.1025e-03  2:42:33  833
        Stabilizing pressure coupled to enhance linear solver robustness.
   168  1.3562e-02  1.4289e-08  9.5384e-09  1.0517e-07  5.6047e-07  1.0965e-03  2:44:14  832
        Stabilizing pressure coupled to enhance linear solver robustness.
   169  1.3485e-02  1.3758e-08  8.8310e-09  1.0130e-07  5.2429e-07  1.0874e-03  2:49:43  831
        Stabilizing pressure coupled to enhance linear solver robustness.
   170  1.3411e-02  1.3191e-08  7.6368e-09  9.7867e-08  5.0564e-07  1.0834e-03  3:00:58  830
        Stabilizing pressure coupled to enhance linear solver robustness.
   171  1.3330e-02  1.3303e-08  6.9606e-09  9.8309e-08  5.1728e-07  1.0600e-03  3:09:39  829
        Stabilizing pressure coupled to enhance linear solver robustness.
   172  1.3291e-02  1.4722e-08  8.7769e-09  9.3869e-08  4.7407e-07  1.0448e-03  3:01:52  828
        Stabilizing pressure coupled to enhance linear solver robustness.
   173  1.3197e-02  1.4404e-08  7.3697e-09  8.9804e-08  4.5199e-07  1.0291e-03  2:56:53  827
        Stabilizing pressure coupled to enhance linear solver robustness.
   174  1.3105e-02  1.4399e-08  6.4482e-09  8.8452e-08  4.5180e-07  1.0120e-03  3:00:55  826
        Stabilizing pressure coupled to enhance linear solver robustness.
   175  1.3019e-02  1.4731e-08  5.7791e-09  8.7421e-08  4.4379e-07  9.9515e-04  3:12:07  825
        Stabilizing pressure coupled to enhance linear solver robustness.
   176  1.2947e-02  1.4822e-08  5.3528e-09  8.4275e-08  4.2832e-07  9.7728e-04  2:55:15  824
        Stabilizing pressure coupled to enhance linear solver robustness.

  iter  continuity  x-velocity  y-velocity      energy           k       omega     time/iter
   177  1.2884e-02  1.4995e-08  5.6400e-09  8.2666e-08  4.3657e-07  9.5966e-04  2:42:44  823
   178  1.2800e-02  1.5166e-08  5.4841e-09  8.0100e-08  4.2028e-07  9.4199e-04  2:28:14  822
   179  1.2727e-02  1.5164e-08  5.2330e-09  7.8050e-08  4.1881e-07  9.2255e-04  2:17:26  821
        Stabilizing pressure coupled to enhance linear solver robustness.
   180  1.2941e-02  1.9704e-08  5.6525e-09  7.8097e-08  4.2722e-07  9.0652e-04  2:14:21  820
        Stabilizing pressure coupled to enhance linear solver robustness.
   181  1.2722e-02  1.7239e-08  5.6749e-09  7.5392e-08  4.0341e-07  8.9089e-04  2:12:00  819
   182  1.2565e-02  1.5485e-08  5.2219e-09  7.3005e-08  4.0188e-07  8.7513e-04  2:02:53  818
   183  1.2441e-02  1.4551e-08  4.9415e-09  7.1575e-08  4.0602e-07  8.6078e-04  1:56:56  817
   184  1.2834e-02  2.1666e-08  5.9220e-09  6.9898e-08  3.8953e-07  8.4644e-04  1:48:00  816
        Stabilizing pressure coupled to enhance linear solver robustness.
   185  1.2511e-02  1.7194e-08  5.3424e-09  7.0953e-08  4.1861e-07  8.3338e-04  1:52:02  815
   186  1.2294e-02  1.4757e-08  5.2726e-09  6.8531e-08  3.9375e-07  8.2189e-04  1:48:07  814
   187  1.2153e-02  1.2913e-08  4.8168e-09  6.6157e-08  3.8697e-07  8.0998e-04  1:41:25  813

  iter  continuity  x-velocity  y-velocity      energy           k       omega     time/iter
   188  1.2041e-02  1.1803e-08  4.7858e-09  6.5073e-08  3.8801e-07  8.0055e-04  1:39:33  812
   189  1.2063e-02  1.3053e-08  5.0244e-09  2.2186e-07  7.5301e-07  8.1558e-04  1:34:25  811
   190  4.1757e-02  1.9129e-07  3.4402e-08  1.5354e-07  8.9002e-07  8.0201e-04  1:26:24  810
   191  2.8953e-02  1.3516e-07  2.3224e-08  1.1239e-07  9.3318e-07  7.4435e-04  1:23:10  809
   192  2.2281e-02  1.1698e-07  2.3588e-08  9.3218e-08  8.4537e-07  7.4437e-04  1:20:24  808
   193  1.7827e-02  1.0563e-07  1.9820e-08  7.6304e-08  5.1127e-07  7.5321e-04  1:17:56  807
   194  1.5589e-02  9.6205e-08  1.6284e-08  6.9487e-08  4.2784e-07  7.6541e-04  1:16:23  806
   195  1.5099e-02  8.7960e-08  1.4459e-08  6.6417e-08  4.2273e-07  7.6202e-04  1:15:10  805
   196  1.3999e-02  7.9309e-08  1.3765e-08  6.4476e-08  4.0475e-07  7.5844e-04  1:14:08  804
        Stabilizing pressure coupled to enhance linear solver robustness.
   197  1.3486e-02  7.0122e-08  1.3047e-08  6.6408e-08  4.4217e-07  7.5683e-04  1:25:41  803
   198  1.3077e-02  6.1446e-08  1.2112e-08  6.3320e-08  4.0199e-07  7.5938e-04  1:22:37  802

  iter  continuity  x-velocity  y-velocity      energy           k       omega     time/iter
   199  1.2752e-02  5.3089e-08  1.0938e-08  5.9497e-08  3.8599e-07  7.5726e-04  1:17:44  801
        Stabilizing pressure coupled to enhance linear solver robustness.
   200  1.2464e-02  4.6238e-08  1.0730e-08  6.1498e-08  4.1554e-07  7.5653e-04  1:38:12  800
        Stabilizing pressure coupled to enhance linear solver robustness.
   201  1.2197e-02  4.0285e-08  9.0139e-09  6.1300e-08  4.1155e-07  7.5522e-04  1:46:15  799
   202  1.1990e-02  3.4629e-08  8.1474e-09  5.8145e-08  3.8657e-07  7.5528e-04  1:38:07  798
   203  1.2226e-02  3.8332e-08  8.7887e-09  5.6906e-08  4.0918e-07  7.5474e-04  1:30:17  797
   204  1.2398e-02  3.8352e-08  1.0893e-08  5.8040e-08  3.8345e-07  7.5122e-04  1:30:18  796
   205  1.1732e-02  2.8509e-08  8.1578e-09  5.5304e-08  3.6305e-07  7.5192e-04  1:25:05  795
        Stabilizing pressure coupled to enhance linear solver robustness.
   206  1.1563e-02  2.7453e-08  7.4746e-09  5.5742e-08  3.6523e-07  7.5170e-04  1:28:02  794
        Stabilizing pressure coupled to enhance linear solver robustness.
   207  1.1206e-02  2.0451e-08  6.6006e-09  5.7032e-08  3.7997e-07  7.5126e-04  2:01:44  793
        Stabilizing pressure coupled to enhance linear solver robustness.
   208  1.0965e-02  1.6313e-08  5.4477e-09  5.7373e-08  3.7336e-07  7.5166e-04  2:10:15  792
        Stabilizing pressure coupled to enhance linear solver robustness.
   209  1.0812e-02  1.3919e-08  4.7827e-09  5.6962e-08  3.7414e-07  7.5474e-04  2:20:02  791
        Stabilizing pressure coupled to enhance linear solver robustness.

  iter  continuity  x-velocity  y-velocity      energy           k       omega     time/iter
   210  1.0678e-02  1.2551e-08  4.4722e-09  5.5135e-08  3.6382e-07  7.5604e-04  2:18:07  790
        Stabilizing pressure coupled to enhance linear solver robustness.
   211  1.0569e-02  1.1421e-08  4.1004e-09  5.4541e-08  3.6212e-07  7.5776e-04  2:35:50  789
        Stabilizing pressure coupled to enhance linear solver robustness.
   212  1.0474e-02  1.0820e-08  4.1965e-09  5.3793e-08  3.6021e-07  7.6002e-04  2:37:24  788
        Stabilizing pressure coupled to enhance linear solver robustness.
   213  1.0387e-02  1.0053e-08  3.7938e-09  5.2407e-08  3.4066e-07  7.6339e-04  2:26:48  787
        Stabilizing pressure coupled to enhance linear solver robustness.
   214  1.0309e-02  9.4850e-09  3.8901e-09  5.1329e-08  3.4079e-07  7.6664e-04  2:25:55  786
        Stabilizing pressure coupled to enhance linear solver robustness.
   215  1.0235e-02  8.9812e-09  3.6032e-09  5.0652e-08  3.3463e-07  7.6894e-04  2:22:41  785
        Stabilizing pressure coupled to enhance linear solver robustness.
   216  1.0157e-02  8.5548e-09  3.5169e-09  5.0276e-08  3.3074e-07  7.7234e-04  2:32:47  784
        Stabilizing pressure coupled to enhance linear solver robustness.
   217  1.0078e-02  8.0247e-09  3.2768e-09  4.8869e-08  3.1420e-07  7.7562e-04  2:30:59  783
   218  1.0022e-02  7.7535e-09  3.9280e-09  4.7391e-08  3.1025e-07  7.7862e-04  2:18:06  782
        Stabilizing pressure coupled to enhance linear solver robustness.
   219  1.0009e-02  8.4153e-09  3.7196e-09  4.7672e-08  3.1562e-07  7.7887e-04  2:23:52  781
        Stabilizing pressure coupled to enhance linear solver robustness.
   220  9.9125e-03  7.5464e-09  3.3052e-09  4.6727e-08  3.0140e-07  7.8152e-04  2:22:18  780
        Stabilizing pressure coupled to enhance linear solver robustness.

  iter  continuity  x-velocity  y-velocity      energy           k       omega     time/iter
   221  9.8463e-03  6.9997e-09  3.2672e-09  4.6785e-08  3.0617e-07  7.8511e-04  2:18:49  779
        Stabilizing pressure coupled to enhance linear solver robustness.
   222  9.7845e-03  6.9050e-09  3.6080e-09  4.6006e-08  2.7957e-07  7.8553e-04  2:11:35  778
        Stabilizing pressure coupled to enhance linear solver robustness.
   223  9.7191e-03  6.6763e-09  3.3464e-09  4.5195e-08  2.8337e-07  7.8903e-04  2:06:37  777
        Stabilizing pressure coupled to enhance linear solver robustness.
   224  9.6603e-03  6.7065e-09  3.5082e-09  4.5007e-08  2.8948e-07  7.8380e-04  2:06:33  776
        Stabilizing pressure coupled to enhance linear solver robustness.
   225  9.6047e-03  6.6904e-09  3.3935e-09  4.4952e-08  2.8722e-07  7.7905e-04  2:12:31  775
        Stabilizing pressure coupled to enhance linear solver robustness.
   226  9.5446e-03  6.6780e-09  3.2489e-09  4.4374e-08  2.5522e-07  7.8032e-04  2:07:25  774
        Stabilizing pressure coupled to enhance linear solver robustness.
   227  9.5062e-03  7.1670e-09  3.7333e-09  4.3336e-08  2.6442e-07  7.7689e-04  2:11:58  773
        Stabilizing pressure coupled to enhance linear solver robustness.
   228  9.4286e-03  7.2148e-09  3.7966e-09  4.3115e-08  2.6592e-07  7.6789e-04  2:25:20  772
        Stabilizing pressure coupled to enhance linear solver robustness.
   229  9.3641e-03  7.2107e-09  3.2566e-09  4.2990e-08  2.6425e-07  7.6085e-04  2:26:33  771
        Stabilizing pressure coupled to enhance linear solver robustness.
   230  9.3136e-03  7.2694e-09  3.0786e-09  1.3824e-07  1.0254e-06  7.5791e-04  2:32:12  770
        Stabilizing pressure coupled to enhance linear solver robustness.
   231  1.0674e-02  2.8282e-08  2.8144e-08  1.0643e-07  4.9563e-07  7.5294e-04  2:28:39  769
        Stabilizing pressure coupled to enhance linear solver robustness.

  iter  continuity  x-velocity  y-velocity      energy           k       omega     time/iter
   232  9.9676e-03  1.8931e-08  1.8420e-08  7.6312e-08  4.1759e-07  7.4317e-04  2:47:45  768
        Stabilizing pressure coupled to enhance linear solver robustness.
   233  9.5389e-03  1.4260e-08  1.0576e-08  6.6596e-08  3.7757e-07  7.3688e-04  3:04:42  767
        Stabilizing pressure coupled to enhance linear solver robustness.
   234  9.3937e-03  1.1121e-08  6.7586e-09  5.6870e-08  3.2617e-07  7.2933e-04  2:53:29  766
        Stabilizing pressure coupled to enhance linear solver robustness.
   235  9.2670e-03  9.7891e-09  5.2719e-09  5.2869e-08  3.3240e-07  7.2165e-04  3:05:20  765
        Stabilizing pressure coupled to enhance linear solver robustness.
   236  9.1520e-03  9.5883e-09  4.4707e-09  5.1645e-08  3.4327e-07  7.1402e-04  2:56:07  764
        Stabilizing pressure coupled to enhance linear solver robustness.
   237  9.0704e-03  9.3269e-09  4.5920e-09  4.9906e-08  3.3359e-07  7.0626e-04  3:02:29  763
        Stabilizing pressure coupled to enhance linear solver robustness.
   238  8.9796e-03  9.1400e-09  3.9933e-09  4.8942e-08  3.3759e-07  6.9912e-04  2:57:47  762
        Stabilizing pressure coupled to enhance linear solver robustness.
   239  8.9139e-03  9.1440e-09  4.0211e-09  4.7238e-08  3.1497e-07  6.9316e-04  3:09:48  761
        Stabilizing pressure coupled to enhance linear solver robustness.
   240  8.8303e-03  8.5740e-09  3.6813e-09  4.4901e-08  3.0545e-07  6.8558e-04  3:09:10  760
        Stabilizing pressure coupled to enhance linear solver robustness.
   241  8.7601e-03  8.3967e-09  3.7333e-09  4.4291e-08  3.0406e-07  6.7932e-04  3:18:41  759
        Stabilizing pressure coupled to enhance linear solver robustness.
   242  8.6858e-03  8.3640e-09  3.5373e-09  4.1469e-08  2.9227e-07  6.7341e-04  3:11:22  758
        Stabilizing pressure coupled to enhance linear solver robustness.

  iter  continuity  x-velocity  y-velocity      energy           k       omega     time/iter
   243  8.6175e-03  7.9960e-09  3.2816e-09  3.9001e-08  2.6810e-07  6.6945e-04  2:56:31  757
        Stabilizing pressure coupled to enhance linear solver robustness.
   244  8.5408e-03  7.8746e-09  3.6047e-09  3.7870e-08  2.6602e-07  6.6470e-04  2:44:07  756
        Stabilizing pressure coupled to enhance linear solver robustness.
   245  8.4686e-03  7.7443e-09  3.5076e-09  1.6269e-07  1.2159e-06  6.5993e-04  2:44:47  755
        Stabilizing pressure coupled to enhance linear solver robustness.
   246  1.0498e-02  4.1513e-08  4.8887e-08  1.2917e-07  6.2010e-07  6.4944e-04  2:33:55  754
   247  9.4260e-03  2.5566e-08  3.2388e-08  8.7171e-08  5.2931e-07  6.4582e-04  2:21:30  753
   248  9.8002e-03  3.0535e-08  2.0904e-08  7.2269e-08  4.7249e-07  6.5320e-04  2:11:30  752
        Stabilizing pressure coupled to enhance linear solver robustness.
   249  9.1941e-03  2.0958e-08  1.3799e-08  6.4490e-08  4.6748e-07  6.8222e-04  2:25:07  751

>> Dividing domain into 40 partitions using Metis.
   Time = 0.297018 seconds.
   Done.

>> 40 Stored Partitions:
   ----------------------------------------------------------------------
   Collective Partition Statistics:        Minimum   Maximum   Total     
   ----------------------------------------------------------------------
   Cell count                              131168    137926    5500889   
   Mean cell count deviation               -4.6%     0.3%      
   Partition boundary cell count           564       1917      54192     
   Partition boundary cell count ratio     0.4%      1.4%      1.0%      

   Face count                              264567    278658    11032465  
   Mean face count deviation               -4.4%     0.7%      
   Partition boundary face count           695       2418      33775     
   Partition boundary face count ratio     0.3%      0.9%      0.3%      

   Cell weights                            1e+06     1e+06     5e+07     
   Mean cell weight deviation              -6.3%     2.5%      

   Partition neighbor count                1         7         
   ----------------------------------------------------------------------
   Partition Method                        Metis                                
   Stored Partition Count                  40                                   
Done.

Adapting mesh...
done.
   250  1.0282e-02  2.2623e-07  9.1059e-08  1.2425e-07  3.9794e-07  1.0320e-01  2:19:21  750
   251  9.4840e-03  1.1616e-07  4.9422e-08  9.3936e-08  3.8695e-07  1.9111e-02  2:03:05  749
   252  8.7435e-03  6.3046e-08  2.7695e-08  7.1166e-08  3.4059e-07  4.8219e-03  1:51:16  748
   253  8.3885e-03  3.6272e-08  1.7248e-08  5.5762e-08  3.1028e-07  1.7784e-03  1:42:14  747

  iter  continuity  x-velocity  y-velocity      energy           k       omega     time/iter
   254  8.2866e-03  2.2621e-08  1.1818e-08  4.6668e-08  2.8197e-07  1.1504e-03  1:35:24  746
   255  8.2069e-03  1.5588e-08  8.9524e-09  4.1458e-08  2.6037e-07  8.6081e-04  1:29:33  745
   256  8.1168e-03  1.1869e-08  7.3759e-09  3.8468e-08  2.4487e-07  7.6607e-04  1:24:33  744
   257  8.0207e-03  9.8448e-09  6.4382e-09  3.6645e-08  2.3890e-07  6.6900e-04  1:20:42  743
   258  7.9233e-03  8.6770e-09  5.8662e-09  3.5382e-08  2.3576e-07  6.2909e-04  1:17:50  742
   259  7.8286e-03  7.9489e-09  5.4446e-09  3.4507e-08  2.3320e-07  6.1560e-04  1:15:30  741
   260  7.7398e-03  7.4440e-09  5.1379e-09  3.3779e-08  2.3132e-07  6.1980e-04  1:13:37  740
   261  7.6563e-03  7.0778e-09  4.9055e-09  3.3163e-08  2.2979e-07  6.2432e-04  1:12:12  739
   262  7.5783e-03  6.8137e-09  4.7217e-09  3.2548e-08  2.2768e-07  6.2428e-04  1:11:09  738
   263  7.5057e-03  6.6214e-09  4.5705e-09  3.2069e-08  2.2539e-07  6.2054e-04  1:10:16  737
   264  7.4381e-03  6.4901e-09  4.4391e-09  3.1631e-08  2.2473e-07  6.1348e-04  1:09:47  736

  iter  continuity  x-velocity  y-velocity      energy           k       omega     time/iter
   265  7.3747e-03  6.4143e-09  4.3202e-09  3.1269e-08  2.2285e-07  6.0605e-04  1:09:05  735
   266  7.3141e-03  6.3731e-09  4.2070e-09  3.0894e-08  2.2171e-07  5.9834e-04  1:08:39  734
   267  7.2554e-03  6.3675e-09  4.0967e-09  3.0616e-08  2.1647e-07  5.9125e-04  1:08:24  733
   268  7.1987e-03  6.3491e-09  3.9845e-09  3.0196e-08  2.1625e-07  5.8567e-04  1:07:57  732
   269  7.1440e-03  6.3639e-09  3.8860e-09  2.9872e-08  2.1544e-07  5.7933e-04  1:07:34  731
   270  7.0898e-03  6.3694e-09  3.7886e-09  2.9597e-08  2.1513e-07  5.7465e-04  1:07:25  730
   271  7.0369e-03  6.3707e-09  3.6982e-09  2.9298e-08  2.1399e-07  5.7142e-04  1:07:13  729
   272  6.9851e-03  6.3627e-09  3.6185e-09  2.9020e-08  2.1339e-07  5.6795e-04  1:07:02  728
   273  6.9342e-03  6.3568e-09  3.5553e-09  2.8755e-08  2.0868e-07  5.6506e-04  1:06:40  727
   274  6.8834e-03  6.3348e-09  3.4935e-09  2.8433e-08  2.0455e-07  5.6244e-04  1:06:33  726
   275  6.8327e-03  6.3221e-09  3.4398e-09  2.8137e-08  2.0524e-07  5.5999e-04  1:06:42  725

  iter  continuity  x-velocity  y-velocity      energy           k       omega     time/iter
   276  6.7829e-03  6.3354e-09  3.4012e-09  2.7908e-08  2.0530e-07  5.5695e-04  1:07:13  724
   277  6.7326e-03  6.3352e-09  3.3689e-09  2.7701e-08  2.0147e-07  5.5516e-04  1:06:50  723
   278  6.6830e-03  6.3227e-09  3.3246e-09  2.7427e-08  2.0207e-07  5.5267e-04  1:06:22  722
   279  6.6340e-03  6.3414e-09  3.2887e-09  2.7243e-08  2.0237e-07  5.4934e-04  1:06:00  721
   280  6.5846e-03  6.3553e-09  3.2541e-09  2.7067e-08  1.9894e-07  5.4715e-04  1:05:41  720
   281  6.5353e-03  6.3566e-09  3.2083e-09  2.6811e-08  1.9886e-07  5.4410e-04  1:05:23  719
   282  6.4864e-03  6.3823e-09  3.1708e-09  2.6655e-08  1.9855e-07  5.4026e-04  1:05:12  718
   283  6.4371e-03  6.4036e-09  3.1392e-09  2.6512e-08  1.9405e-07  5.3776e-04  1:05:11  717
   284  6.3882e-03  6.4154e-09  3.1032e-09  2.6322e-08  1.9443e-07  5.3429e-04  1:04:54  716
   285  6.3401e-03  6.4453e-09  3.0778e-09  2.6190e-08  1.9383e-07  5.2993e-04  1:04:44  715
   286  6.2913e-03  6.4602e-09  3.0547e-09  2.6068e-08  1.8852e-07  5.2697e-04  1:04:49  714

  iter  continuity  x-velocity  y-velocity      energy           k       omega     time/iter
   287  6.2434e-03  6.4519e-09  3.0157e-09  2.5903e-08  1.8952e-07  5.2251e-04  1:04:30  713
   288  6.1955e-03  6.4663e-09  2.9859e-09  2.5806e-08  1.9022e-07  5.1867e-04  1:04:15  712
   289  6.1478e-03  6.4664e-09  2.9569e-09  2.5685e-08  1.8942e-07  5.1488e-04  1:04:04  711
   290  6.1002e-03  6.4571e-09  2.9263e-09  2.5569e-08  1.8834e-07  5.1088e-04  1:04:00  710
   291  6.0521e-03  6.4413e-09  2.8987e-09  2.5418e-08  1.8411e-07  5.0746e-04  1:03:42  709
   292  6.0048e-03  6.4062e-09  2.8630e-09  2.5228e-08  1.8343e-07  5.0281e-04  1:03:34  708
   293  5.9575e-03  6.3880e-09  2.8359e-09  2.5070e-08  1.8263e-07  4.9894e-04  1:03:28  707
   294  5.9102e-03  6.3559e-09  2.8117e-09  2.4940e-08  1.8192e-07  4.9491e-04  1:03:19  706
   295  5.8632e-03  6.3150e-09  2.7930e-09  2.4811e-08  1.8114e-07  4.9108e-04  1:03:12  705
   296  5.8164e-03  6.2670e-09  2.7778e-09  2.4659e-08  1.8021e-07  4.8707e-04  1:03:11  704
   297  5.7694e-03  6.2138e-09  2.7620e-09  2.4466e-08  1.7943e-07  4.8366e-04  1:03:24  703

  iter  continuity  x-velocity  y-velocity      energy           k       omega     time/iter
   298  5.7231e-03  6.1596e-09  2.7483e-09  2.4307e-08  1.7858e-07  4.7932e-04  1:03:16  702
   299  5.6761e-03  6.0986e-09  2.7372e-09  2.4114e-08  1.7796e-07  4.7604e-04  1:03:13  701
   300  5.6297e-03  6.0384e-09  2.7293e-09  2.3961e-08  1.7313e-07  4.7234e-04  1:03:02  700
   301  5.5839e-03  5.9554e-09  2.7064e-09  2.3741e-08  1.7305e-07  4.6827e-04  1:02:51  699
   302  5.5379e-03  5.8938e-09  2.6898e-09  2.3580e-08  1.7290e-07  4.6489e-04  1:02:39  698
   303  5.4921e-03  5.8237e-09  2.6730e-09  2.3416e-08  1.7245e-07  4.6159e-04  1:02:38  697
   304  5.4465e-03  5.7538e-09  2.6539e-09  2.3227e-08  1.7196e-07  4.5860e-04  1:02:35  696
   305  5.4010e-03  5.6816e-09  2.6353e-09  2.3053e-08  1.7097e-07  4.5510e-04  1:02:32  695
   306  5.3557e-03  5.6050e-09  2.6159e-09  2.2872e-08  1.7078e-07  4.5177e-04  1:02:15  694
   307  5.3106e-03  5.5338e-09  2.5957e-09  2.2699e-08  1.6998e-07  4.4876e-04  1:02:17  693
   308  5.2657e-03  5.4638e-09  2.5702e-09  2.2538e-08  1.6829e-07  4.4565e-04  1:02:24  692

  iter  continuity  x-velocity  y-velocity      energy           k       omega     time/iter
   309  5.2212e-03  5.3945e-09  2.5444e-09  2.2367e-08  1.6740e-07  4.4258e-04  1:02:16  691
   310  5.1769e-03  5.3291e-09  2.5178e-09  2.2193e-08  1.6517e-07  4.3963e-04  1:02:01  690
   311  5.1329e-03  5.2659e-09  2.4870e-09  2.2024e-08  1.6442e-07  4.3678e-04  1:01:46  689
   312  5.0892e-03  5.2098e-09  2.4545e-09  2.1860e-08  1.6322e-07  4.3393e-04  1:01:48  688
   313  5.0459e-03  5.1551e-09  2.4223e-09  2.1698e-08  1.6188e-07  4.3113e-04  1:01:45  687
   314  5.0026e-03  5.1052e-09  2.3940e-09  2.1553e-08  1.5990e-07  4.2830e-04  1:01:44  686
   315  4.9597e-03  5.0556e-09  2.3650e-09  2.1395e-08  1.5834e-07  4.2554e-04  1:01:42  685
   316  4.9172e-03  5.0098e-09  2.3344e-09  2.1252e-08  1.5681e-07  4.2292e-04  1:01:38  684
   317  4.8748e-03  4.9662e-09  2.3063e-09  2.1106e-08  1.5508e-07  4.2018e-04  1:01:33  683
   318  4.8329e-03  4.9221e-09  2.2759e-09  2.0958e-08  1.5343e-07  4.1751e-04  1:01:11  682
   319  4.7912e-03  4.8807e-09  2.2476e-09  2.0858e-08  1.4895e-07  4.1457e-04  1:00:59  681

  iter  continuity  x-velocity  y-velocity      energy           k       omega     time/iter
   320  4.7489e-03  4.8303e-09  2.2114e-09  2.0663e-08  1.4877e-07  4.1240e-04  1:00:54  680
   321  4.7076e-03  4.8046e-09  2.1854e-09  2.0553e-08  1.4802e-07  4.0946e-04  1:00:49  679
   322  4.6662e-03  4.7701e-09  2.1621e-09  2.0440e-08  1.4733e-07  4.0681e-04  1:00:51  678
   323  4.6253e-03  4.7384e-09  2.1375e-09  2.0335e-08  1.4612e-07  4.0412e-04  1:00:56  677
   324  4.5845e-03  4.7047e-09  2.1143e-09  2.0185e-08  1.4462e-07  4.0174e-04  1:00:49  676
   325  4.5441e-03  4.6770e-09  2.0926e-09  2.0046e-08  1.4314e-07  3.9901e-04  1:00:36  675
   326  4.5041e-03  4.6503e-09  2.0720e-09  1.9929e-08  1.4190e-07  3.9589e-04  1:00:35  674
   327  4.4638e-03  4.6267e-09  2.0494e-09  1.9794e-08  1.4045e-07  3.9344e-04  1:00:34  673
   328  4.4243e-03  4.6029e-09  2.0297e-09  1.9666e-08  1.3918e-07  3.9072e-04  1:00:28  672
   329  4.3848e-03  4.5844e-09  2.0100e-09  1.9550e-08  1.3732e-07  3.8796e-04  1:00:24  671
   330  4.3459e-03  4.5623e-09  1.9900e-09  1.9420e-08  1.3655e-07  3.8512e-04  1:00:15  670

  iter  continuity  x-velocity  y-velocity      energy           k       omega     time/iter
   331  4.3073e-03  4.5457e-09  1.9712e-09  1.9322e-08  1.3580e-07  3.8192e-04  1:00:18  669
   332  4.2687e-03  4.5307e-09  1.9534e-09  1.9214e-08  1.3445e-07  3.7928e-04  1:00:10  668
   333  4.2300e-03  4.5170e-09  1.9359e-09  1.9090e-08  1.3328e-07  3.7688e-04  0:59:58  667
   334  4.1921e-03  4.5042e-09  1.9189e-09  1.8990e-08  1.3189e-07  3.7376e-04  0:59:51  666
   335  4.1542e-03  4.4889e-09  1.9021e-09  1.8878e-08  1.3097e-07  3.7079e-04  0:59:47  665
   336  4.1161e-03  4.4754e-09  1.8854e-09  1.8771e-08  1.3000e-07  3.6826e-04  0:59:38  664
   337  4.0788e-03  4.4616e-09  1.8713e-09  1.8668e-08  1.2876e-07  3.6512e-04  0:59:29  663
   338  4.0415e-03  4.4467e-09  1.8552e-09  1.8565e-08  1.2785e-07  3.6230e-04  0:59:25  662
   339  4.0043e-03  4.4327e-09  1.8392e-09  1.8463e-08  1.2705e-07  3.5937e-04  0:59:15  661
   340  3.9675e-03  4.4184e-09  1.8239e-09  1.8391e-08  1.2370e-07  3.5645e-04  0:59:05  660
   341  3.9310e-03  4.3913e-09  1.7992e-09  1.8242e-08  1.2389e-07  3.5363e-04  0:58:59  659

  iter  continuity  x-velocity  y-velocity      energy           k       omega     time/iter
   342  3.8945e-03  4.3811e-09  1.7820e-09  1.8162e-08  1.2076e-07  3.5073e-04  0:58:57  658
   343  3.8581e-03  4.3514e-09  1.7582e-09  1.8028e-08  1.2162e-07  3.4773e-04  0:58:49  657
   344  3.8220e-03  4.3399e-09  1.7446e-09  1.7915e-08  1.2153e-07  3.4474e-04  0:58:43  656
   345  3.7860e-03  4.3191e-09  1.7325e-09  1.7838e-08  1.1878e-07  3.4185e-04  0:58:38  655
   346  3.7503e-03  4.2868e-09  1.7118e-09  1.7690e-08  1.1877e-07  3.3890e-04  0:58:32  654
   347  3.7148e-03  4.2701e-09  1.6979e-09  1.7582e-08  1.1882e-07  3.3590e-04  0:58:24  653
   348  3.6794e-03  4.2463e-09  1.6865e-09  1.7503e-08  1.1630e-07  3.3293e-04  0:58:07  652
   349  3.6442e-03  4.2109e-09  1.6660e-09  1.7362e-08  1.1724e-07  3.3002e-04  0:58:05  651
   350  3.6092e-03  4.1948e-09  1.6564e-09  1.7262e-08  1.1742e-07  3.2701e-04  0:58:01  650
   351  3.5744e-03  4.1689e-09  1.6464e-09  1.7171e-08  1.1720e-07  3.2410e-04  0:57:57  649
   352  3.5401e-03  4.1420e-09  1.6349e-09  1.7077e-08  1.1676e-07  3.2121e-04  0:57:52  648

  iter  continuity  x-velocity  y-velocity      energy           k       omega     time/iter
   353  3.5058e-03  4.1149e-09  1.6232e-09  1.6974e-08  1.1628e-07  3.1837e-04  0:58:09  647
   354  3.4720e-03  4.0872e-09  1.6126e-09  1.6873e-08  1.1557e-07  3.1547e-04  0:57:58  646
   355  3.4381e-03  4.0564e-09  1.6013e-09  1.6773e-08  1.1450e-07  3.1264e-04  0:57:51  645
   356  3.4043e-03  4.0260e-09  1.5878e-09  1.6692e-08  1.1143e-07  3.0988e-04  0:57:32  644
   357  3.3709e-03  3.9865e-09  1.5679e-09  1.6570e-08  1.1129e-07  3.0707e-04  0:57:18  643
   358  3.3376e-03  3.9595e-09  1.5548e-09  1.6472e-08  1.1142e-07  3.0433e-04  0:57:03  642
   359  3.3047e-03  3.9281e-09  1.5425e-09  1.6380e-08  1.1116e-07  3.0159e-04  0:57:02  641
   360  3.2720e-03  3.8962e-09  1.5314e-09  1.6288e-08  1.1036e-07  2.9885e-04  0:57:02  640
   361  3.2394e-03  3.8609e-09  1.5201e-09  1.6199e-08  1.0941e-07  2.9622e-04  0:56:44  639
   362  3.2071e-03  3.8269e-09  1.5075e-09  1.6105e-08  1.0880e-07  2.9355e-04  0:56:42  638
   363  3.1749e-03  3.7942e-09  1.4944e-09  1.6019e-08  1.0794e-07  2.9092e-04  0:56:40  637

  iter  continuity  x-velocity  y-velocity      energy           k       omega     time/iter
   364  3.1430e-03  3.7615e-09  1.4824e-09  1.5938e-08  1.0696e-07  2.8831e-04  0:56:49  636
   365  3.1113e-03  3.7274e-09  1.4705e-09  1.5876e-08  1.0414e-07  2.8577e-04  0:56:33  635
   366  3.0800e-03  3.6846e-09  1.4515e-09  1.5786e-08  1.0206e-07  2.8325e-04  0:56:19  634
   367  3.0488e-03  3.6503e-09  1.4319e-09  1.5684e-08  1.0218e-07  2.8066e-04  0:56:06  633
   368  3.0177e-03  3.6226e-09  1.4196e-09  1.5607e-08  1.0232e-07  2.7815e-04  0:56:03  632
   369  2.9871e-03  3.5904e-09  1.4089e-09  1.5557e-08  1.0005e-07  2.7542e-04  0:55:52  631
   370  2.9562e-03  3.5513e-09  1.3915e-09  1.5452e-08  1.0027e-07  2.7318e-04  0:55:37  630
   371  2.9259e-03  3.5239e-09  1.3800e-09  1.5394e-08  1.0049e-07  2.7047e-04  0:55:38  629
   372  2.8955e-03  3.4937e-09  1.3708e-09  1.5313e-08  1.0020e-07  2.6822e-04  0:55:43  628
   373  2.8656e-03  3.4644e-09  1.3621e-09  1.5230e-08  9.9559e-08  2.6573e-04  0:55:42  627
   374  2.8359e-03  3.4340e-09  1.3525e-09  1.5151e-08  9.8981e-08  2.6326e-04  0:55:29  626

  iter  continuity  x-velocity  y-velocity      energy           k       omega     time/iter
   375  2.8065e-03  3.4059e-09  1.3429e-09  1.5090e-08  9.6593e-08  2.6081e-04  0:55:17  625
   376  2.7774e-03  3.3719e-09  1.3260e-09  1.4998e-08  9.6484e-08  2.5843e-04  0:55:18  624
   377  2.7488e-03  3.3521e-09  1.3144e-09  1.4945e-08  9.6088e-08  2.5580e-04  0:55:18  623
   378  2.7200e-03  3.3261e-09  1.3029e-09  1.4876e-08  9.5477e-08  2.5367e-04  0:55:14  622
   379  2.6916e-03  3.3017e-09  1.2928e-09  1.4823e-08  9.4814e-08  2.5110e-04  0:55:00  621
   380  2.6634e-03  3.2757e-09  1.2827e-09  1.4766e-08  9.4365e-08  2.4876e-04  0:55:02  620
   381  2.6351e-03  3.2500e-09  1.2733e-09  1.4708e-08  9.1773e-08  2.4664e-04  0:54:45  619
   382  2.6074e-03  3.2167e-09  1.2563e-09  1.4642e-08  8.9903e-08  2.4420e-04  0:54:29  618
   383  2.5799e-03  3.1904e-09  1.2372e-09  1.4567e-08  8.9641e-08  2.4186e-04  0:54:17  617
   384  2.5524e-03  3.1716e-09  1.2253e-09  1.4514e-08  8.9411e-08  2.3963e-04  0:54:06  616
   385  2.5252e-03  3.1464e-09  1.2156e-09  1.4463e-08  8.8866e-08  2.3733e-04  0:53:54  615

  iter  continuity  x-velocity  y-velocity      energy           k       omega     time/iter
   386  2.4982e-03  3.1202e-09  1.2065e-09  1.4400e-08  8.8719e-08  2.3507e-04  0:53:55  614
   387  2.4714e-03  3.0946e-09  1.1979e-09  1.4340e-08  8.8101e-08  2.3280e-04  0:54:11  613
   388  2.4449e-03  3.0688e-09  1.1910e-09  1.4281e-08  8.7548e-08  2.3059e-04  0:54:06  612
   389  2.4185e-03  3.0443e-09  1.1827e-09  1.4238e-08  8.5138e-08  2.2836e-04  0:53:52  611
   390  2.3924e-03  3.0146e-09  1.1667e-09  1.4159e-08  8.5196e-08  2.2609e-04  0:53:39  610
   391  2.3665e-03  2.9979e-09  1.1581e-09  1.4110e-08  8.4925e-08  2.2390e-04  0:53:29  609
   392  2.3409e-03  2.9761e-09  1.1504e-09  1.4072e-08  8.2701e-08  2.2167e-04  0:53:17  608
   393  2.3155e-03  2.9460e-09  1.1356e-09  1.4000e-08  8.3032e-08  2.1947e-04  0:53:09  607
   394  2.2903e-03  2.9298e-09  1.1267e-09  1.3957e-08  8.1277e-08  2.1720e-04  0:53:00  606
   395  2.2652e-03  2.9038e-09  1.1130e-09  1.3892e-08  8.1460e-08  2.1506e-04  0:53:05  605
   396  2.2403e-03  2.8862e-09  1.1056e-09  1.3841e-08  8.1266e-08  2.1287e-04  0:53:05  604

  iter  continuity  x-velocity  y-velocity      energy           k       omega     time/iter
   397  2.2157e-03  2.8654e-09  1.0983e-09  1.3809e-08  7.9321e-08  2.1072e-04  0:52:54  603
   398  2.1912e-03  2.8377e-09  1.0842e-09  1.3759e-08  7.7779e-08  2.0857e-04  0:52:57  602
   399  2.1671e-03  2.8147e-09  1.0694e-09  1.3710e-08  7.7872e-08  2.0626e-04  0:52:40  601
   400  2.1430e-03  2.7955e-09  1.0605e-09  1.3679e-08  7.8280e-08  2.0412e-04  0:52:36  600
   401  2.1192e-03  2.7743e-09  1.0554e-09  1.3642e-08  7.7932e-08  2.0206e-04  0:52:37  599
   402  2.0955e-03  2.7494e-09  1.0487e-09  1.3593e-08  7.6017e-08  2.0020e-04  0:52:26  598
   403  2.0720e-03  2.7221e-09  1.0361e-09  1.3527e-08  7.5996e-08  1.9803e-04  0:52:13  597
   404  2.0490e-03  2.7039e-09  1.0292e-09  1.3498e-08  7.5778e-08  1.9571e-04  0:52:00  596
   405  2.0260e-03  2.6807e-09  1.0227e-09  1.3470e-08  7.5571e-08  1.9366e-04  0:51:59  595
   406  2.0033e-03  2.6578e-09  1.0156e-09  1.3432e-08  7.3847e-08  1.9167e-04  0:51:49  594
   407  1.9807e-03  2.6311e-09  1.0030e-09  1.3390e-08  7.2398e-08  1.8966e-04  0:51:37  593

  iter  continuity  x-velocity  y-velocity      energy           k       omega     time/iter
   408  1.9584e-03  2.6067e-09  9.8890e-10  1.3346e-08  7.2437e-08  1.8764e-04  0:51:30  592
   409  1.9362e-03  2.5882e-09  9.8140e-10  1.3319e-08  7.1001e-08  1.8567e-04  0:51:22  591
   410  1.9142e-03  2.5594e-09  9.6905e-10  1.3274e-08  7.1497e-08  1.8367e-04  0:51:24  590
   411  1.8923e-03  2.5411e-09  9.6268e-10  1.3242e-08  7.1352e-08  1.8173e-04  0:51:13  589
   412  1.8707e-03  2.5160e-09  9.5638e-10  1.3201e-08  7.1079e-08  1.7977e-04  0:51:13  588
   413  1.8493e-03  2.4916e-09  9.5026e-10  1.3155e-08  7.0571e-08  1.7781e-04  0:51:01  587
   414  1.8281e-03  2.4687e-09  9.4288e-10  1.3120e-08  7.0215e-08  1.7590e-04  0:50:54  586
   415  1.8070e-03  2.4454e-09  9.3524e-10  1.3084e-08  6.9678e-08  1.7401e-04  0:50:55  585
   416  1.7861e-03  2.4221e-09  9.2779e-10  1.3056e-08  6.7750e-08  1.7216e-04  0:50:47  584
   417  1.7655e-03  2.3944e-09  9.1484e-10  1.3021e-08  6.6394e-08  1.7030e-04  0:50:40  583
   418  1.7450e-03  2.3710e-09  9.0268e-10  1.2985e-08  6.6399e-08  1.6846e-04  0:50:28  582

  iter  continuity  x-velocity  y-velocity      energy           k       omega     time/iter
   419  1.7248e-03  2.3524e-09  8.9548e-10  1.2981e-08  6.4982e-08  1.6646e-04  0:50:14  581
   420  1.7048e-03  2.3252e-09  8.8342e-10  1.2955e-08  6.3711e-08  1.6473e-04  0:50:03  580
   421  1.6850e-03  2.3010e-09  8.7102e-10  1.2919e-08  6.3889e-08  1.6295e-04  0:50:06  579
   422  1.6652e-03  2.2817e-09  8.6440e-10  1.2902e-08  6.2599e-08  1.6123e-04  0:49:56  578
   423  1.6456e-03  2.2530e-09  8.5294e-10  1.2862e-08  6.2835e-08  1.5950e-04  0:49:47  577
   424  1.6263e-03  2.2337e-09  8.4713e-10  1.2842e-08  6.1443e-08  1.5776e-04  0:49:36  576
   425  1.6071e-03  2.2043e-09  8.3542e-10  1.2806e-08  6.1616e-08  1.5599e-04  0:49:28  575
   426  1.5881e-03  2.1844e-09  8.2928e-10  1.2775e-08  6.1530e-08  1.5426e-04  0:49:23  574
   427  1.5693e-03  2.1623e-09  8.2449e-10  1.2749e-08  6.1472e-08  1.5255e-04  0:49:17  573
   428  1.5507e-03  2.1408e-09  8.1911e-10  1.2721e-08  6.1124e-08  1.5089e-04  0:49:18  572
   429  1.5324e-03  2.1190e-09  8.1268e-10  1.2686e-08  6.0686e-08  1.4918e-04  0:49:10  571

  iter  continuity  x-velocity  y-velocity      energy           k       omega     time/iter
   430  1.5143e-03  2.0977e-09  8.0716e-10  1.2662e-08  6.0452e-08  1.4748e-04  0:49:04  570
   431  1.4963e-03  2.0763e-09  8.0094e-10  1.2628e-08  6.0112e-08  1.4587e-04  0:48:56  569
   432  1.4784e-03  2.0572e-09  7.9484e-10  1.2600e-08  5.9445e-08  1.4424e-04  0:48:47  568
   433  1.4608e-03  2.0378e-09  7.8735e-10  1.2571e-08  5.8987e-08  1.4262e-04  0:48:52  567
   434  1.4433e-03  2.0182e-09  7.8023e-10  1.2542e-08  5.8443e-08  1.4105e-04  0:48:45  566
   435  1.4260e-03  1.9976e-09  7.7200e-10  1.2515e-08  5.7961e-08  1.3949e-04  0:48:41  565
   436  1.4089e-03  1.9775e-09  7.6444e-10  1.2491e-08  5.7380e-08  1.3796e-04  0:48:36  564
   437  1.3920e-03  1.9575e-09  7.5664e-10  1.2466e-08  5.5779e-08  1.3643e-04  0:48:31  563
   438  1.3752e-03  1.9332e-09  7.4408e-10  1.2424e-08  5.5361e-08  1.3490e-04  0:48:18  562
   439  1.3586e-03  1.9153e-09  7.3554e-10  1.2411e-08  5.3910e-08  1.3323e-04  0:48:06  561
   440  1.3422e-03  1.8908e-09  7.2378e-10  1.2392e-08  5.2585e-08  1.3181e-04  0:47:55  560

  iter  continuity  x-velocity  y-velocity      energy           k       omega     time/iter
   441  1.3259e-03  1.8698e-09  7.1109e-10  1.2366e-08  5.1536e-08  1.3037e-04  0:47:47  559
   442  1.3098e-03  1.8486e-09  6.9981e-10  1.2335e-08  5.0558e-08  1.2890e-04  0:47:39  558
   443  1.2938e-03  1.8279e-09  6.8969e-10  1.2297e-08  5.0541e-08  1.2744e-04  0:47:31  557
   444  1.2780e-03  1.8106e-09  6.8337e-10  1.2271e-08  5.0384e-08  1.2598e-04  0:47:24  556
   445  1.2623e-03  1.7909e-09  6.7780e-10  1.2249e-08  4.9245e-08  1.2453e-04  0:47:29  555
   446  1.2469e-03  1.7685e-09  6.6862e-10  1.2214e-08  4.9158e-08  1.2309e-04  0:47:21  554
   447  1.2317e-03  1.7523e-09  6.6345e-10  1.2183e-08  4.9016e-08  1.2166e-04  0:47:11  553
   448  1.2166e-03  1.7344e-09  6.5871e-10  1.2156e-08  4.8750e-08  1.2023e-04  0:47:04  552
   449  1.2016e-03  1.7160e-09  6.5329e-10  1.2129e-08  4.8581e-08  1.1881e-04  0:46:56  551
   450  1.1868e-03  1.6990e-09  6.4782e-10  1.2107e-08  4.8236e-08  1.1742e-04  0:46:50  550
   451  1.1723e-03  1.6829e-09  6.4277e-10  1.2081e-08  4.7800e-08  1.1606e-04  0:46:42  549

  iter  continuity  x-velocity  y-velocity      energy           k       omega     time/iter
   452  1.1579e-03  1.6668e-09  6.3721e-10  1.2054e-08  4.7385e-08  1.1470e-04  0:46:38  548
   453  1.1436e-03  1.6506e-09  6.3191e-10  1.2032e-08  4.6169e-08  1.1336e-04  0:46:32  547
   454  1.1296e-03  1.6299e-09  6.2227e-10  1.1996e-08  4.6009e-08  1.1207e-04  0:46:22  546
   455  1.1157e-03  1.6169e-09  6.1589e-10  1.1981e-08  4.5777e-08  1.1058e-04  0:46:15  545
   456  1.1019e-03  1.6001e-09  6.1016e-10  1.1958e-08  4.5512e-08  1.0954e-04  0:46:43  544
   457  1.0882e-03  1.5833e-09  6.0453e-10  1.1939e-08  4.4398e-08  1.0822e-04  0:46:27  543
   458  1.0748e-03  1.5630e-09  5.9577e-10  1.1911e-08  4.4207e-08  1.0676e-04  0:46:11  542
   459  1.0614e-03  1.5484e-09  5.9007e-10  1.1895e-08  4.3861e-08  1.0558e-04  0:45:59  541
   460  1.0482e-03  1.5312e-09  5.8453e-10  1.1883e-08  4.2712e-08  1.0441e-04  0:45:49  540
   461  1.0351e-03  1.5111e-09  5.7552e-10  1.1856e-08  4.1868e-08  1.0324e-04  0:45:41  539
   462  1.0222e-03  1.4936e-09  5.6611e-10  1.1831e-08  4.1091e-08  1.0211e-04  0:45:33  538

  iter  continuity  x-velocity  y-velocity      energy           k       omega     time/iter
   463  1.0095e-03  1.4764e-09  5.5730e-10  1.1803e-08  4.0387e-08  1.0091e-04  0:45:15  537
   464  9.9680e-04  1.4593e-09  5.4931e-10  1.1767e-08  4.0488e-08  9.9702e-05  0:45:10  536
   465  9.8426e-04  1.4445e-09  5.4392e-10  1.1741e-08  4.0434e-08  9.8528e-05  0:45:06  535
   466  9.7186e-04  1.4286e-09  5.3893e-10  1.1717e-08  4.0221e-08  9.7361e-05  0:45:34  534
   467  9.5963e-04  1.4122e-09  5.3405e-10  1.1692e-08  3.9927e-08  9.6214e-05  0:45:20  533
   468  9.4758e-04  1.3963e-09  5.2925e-10  1.1663e-08  3.9575e-08  9.5082e-05  0:45:24  532
   469  9.3566e-04  1.3813e-09  5.2415e-10  1.1632e-08  3.9214e-08  9.3906e-05  0:45:12  531
   470  9.2388e-04  1.3666e-09  5.1916e-10  1.1603e-08  3.8833e-08  9.2823e-05  0:45:01  530
   471  9.1225e-04  1.3523e-09  5.1391e-10  1.1581e-08  3.8453e-08  9.1726e-05  0:44:50  529
   472  9.0077e-04  1.3383e-09  5.0856e-10  1.1558e-08  3.8049e-08  9.0638e-05  0:44:41  528
   473  8.8942e-04  1.3246e-09  5.0333e-10  1.1536e-08  3.7605e-08  8.9557e-05  0:44:34  527

  iter  continuity  x-velocity  y-velocity      energy           k       omega     time/iter
   474  8.7820e-04  1.3107e-09  4.9820e-10  1.1513e-08  3.7126e-08  8.8476e-05  0:44:22  526
   475  8.6717e-04  1.2972e-09  4.9283e-10  1.1498e-08  3.6714e-08  8.7200e-05  0:44:11  525
[...]
 yes no no total-pressure yes 1 0 line_0.0246 ()/plot plot yes M4.00_N2_Pres_5584_Pchm_37.50_Bham_finer/Contour_Data/axial_mach_y_123 yes no no mach yes 1 0 line_0.0246 ()/plot plot yes M4.00_N2_Pres_5584_Pchm_37.50_Bham_finer/Contour_Data/axial_temperature_y_123 yes no no temperature yes 1 0 line_0.0246 ()/plot plot yes M4.00_N2_Pres_5584_Pchm_37.50_Bham_finer/Contour_Data/axial_density_y_123 yes no no density yes 1 0 line_0.0246 ()/surface/line-surface line_0.0248 0.0881 0.0248 1 0.0248/plot plot yes M4.00_N2_Pres_5584_Pchm_37.50_Bham_finer/Contour_Data/axial_pressure_y_124 yes no no total-pressure yes 1 0 line_0.0248 ()/plot plot yes M4.00_N2_Pres_5584_Pchm_37.50_Bham_finer/Contour_Data/axial_mach_y_124 yes no no mach yes 1 0 line_0.0248 ()/plot plot yes M4.00_N2_Pres_5584_Pchm_37.50_Bham_finer/Contour_Data/axial_temperature_y_124 yes no no temperature yes 1 0 line_0.0248 ()/plot plot yes M4.00_N2_Pres_5584_Pchm_37.50_Bham_finer/Contour_Data/axial_density_y_124 yes no no density yes 1 0 line_0.0248 ()/surface/line-surface line_0.025 0.0881 0.025 1 0.025/plot plot yes M4.00_N2_Pres_5584_Pchm_37.50_Bham_finer/Contour_Data/axial_pressure_y_125 yes no no total-pressure yes 1 0 line_0.025 ()/plot plot yes M4.00_N2_Pres_5584_Pchm_37.50_Bham_finer/Contour_Data/axial_mach_y_125 yes no no mach yes 1 0 line_0.025 ()/plot plot yes M4.00_N2_Pres_5584_Pchm_37.50_Bham_finer/Contour_Data/axial_temperature_y_125 yes no no temperature yes 1 0 line_0.025 ()/plot plot yes M4.00_N2_Pres_5584_Pchm_37.50_Bham_finer/Contour_Data/axial_density_y_125 yes no no density yes 1 0 line_0.025 ()/surface/line-surface line_0.0252 0.0881 0.0252 1 0.0252/plot plot yes M4.00_N2_Pres_5584_Pchm_37.50_Bham_finer/Contour_Data/axial_pressure_y_126 yes no no total-pressure yes 1 0 line_0.0252 ()/plot plot yes M4.00_N2_Pres_5584_Pchm_37.50_Bham_finer/Contour_Data/axial_mach_y_126 yes no no mach yes 1 0 line_0.0252 ()/plot plot yes M4.00_N2_Pres_5584_Pchm_37.50_Bham_finer/Contour_Data/axial_temperature_y_126 yes no no temperature yes 1 0 line_0.0252 ()/plot plot yes M4.00_N2_Pres_5584_Pchm_37.50_Bham_finer/Contour_Data/axial_density_y_126 yes no no density yes 1 0 line_0.0252 ()/surface/line-surface line_0.0254 0.0881 0.0254 1 0.0254/plot plot yes M4.00_N2_Pres_5584_Pchm_37.50_Bham_finer/Contour_Data/axial_pressure_y_127 yes no no total-pressure yes 1 0 line_0.0254 ()/plot plot yes M4.00_N2_Pres_5584_Pchm_37.50_Bham_finer/Contour_Data/axial_mach_y_127 yes no no mach yes 1 0 line_0.0254 ()/plot plot yes M4.00_N2_Pres_5584_Pchm_37.50_Bham_finer/Contour_Data/axial_temperature_y_127 yes no no temperature yes 1 0 line_0.0254 ()/plot plot yes M4.00_N2_Pres_5584_Pchm_37.50_Bham_finer/Contour_Data/axial_density_y_127 yes no no density yes 1 0 line_0.0254 ()/surface/line-surface line_0.0256 0.0881 0.0256 1 0.0256/plot plot yes M4.00_N2_Pres_5584_Pchm_37.50_Bham_finer/Contour_Data/axial_pressure_y_128 yes no no total-pressure yes 1 0 line_0.0256 ()/plot plot yes M4.00_N2_Pres_5584_Pchm_37.50_Bham_finer/Contour_Data/axial_mach_y_128 yes no no mach yes 1 0 line_0.0256 ()/plot plot yes M4.00_N2_Pres_5584_Pchm_37.50_Bham_finer/Contour_Data/axial_temperature_y_128 yes no no temperature yes 1 0 line_0.0256 ()/plot plot yes M4.00_N2_Pres_5584_Pchm_37.50_Bham_finer/Contour_Data/axial_density_y_128 yes no no density yes 1 0 line_0.0256 ()/surface/line-surface line_0.0258 0.0881 0.0258 1 0.0258/plot plot yes M4.00_N2_Pres_5584_Pchm_37.50_Bham_finer/Contour_Data/axial_pressure_y_129 yes no no total-pressure yes 1 0 line_0.0258 ()/plot plot yes M4.00_N2_Pres_5584_Pchm_37.50_Bham_finer/Contour_Data/axial_mach_y_129 yes no no mach yes 1 0 line_0.0258 ()/plot plot yes M4.00_N2_Pres_5584_Pchm_37.50_Bham_finer/Contour_Data/axial_temperature_y_129 yes no no temperature yes 1 0 line_0.0258 ()/plot plot yes M4.00_N2_Pres_5584_Pchm_37.50_Bham_finer/Contour_Data/axial_density_y_129 yes no no density yes 1 0 line_0.0258 ()/surface/line-surface line_0.026 0.0881 0.026 1 0.026/plot plot yes M4.00_N2_Pres_5584_Pchm_37.50_Bham_finer/Contour_Data/axial_pressure_y_130 yes no no total-pressure yes 1 0 line_0.026 ()/plot plot yes M4.00_N2_Pres_5584_Pchm_37.50_Bham_finer/Contour_Data/axial_mach_y_130 yes no no mach yes 1 0 line_0.026 ()/plot plot yes M4.00_N2_Pres_5584_Pchm_37.50_Bham_finer/Contour_Data/axial_temperature_y_130 yes no no temperature yes 1 0 line_0.026 ()/plot plot yes M4.00_N2_Pres_5584_Pchm_37.50_Bham_finer/Contour_Data/axial_density_y_130 yes no no density yes 1 0 line_0.026 ()/surface/line-surface line_0.0262 0.0881 0.0262 1 0.0262/plot plot yes M4.00_N2_Pres_5584_Pchm_37.50_Bham_finer/Contour_Data/axial_pressure_y_131 yes no no total-pressure yes 1 0 line_0.0262 ()/plot plot yes M4.00_N2_Pres_5584_Pchm_37.50_Bham_finer/Contour_Data/axial_mach_y_131 yes no no mach yes 1 0 line_0.0262 ()/plot plot yes M4.00_N2_Pres_5584_Pchm_37.50_Bham_finer/Contour_Data/axial_temperature_y_131 yes no no temperature yes 1 0 line_0.0262 ()/plot plot yes M4.00_N2_Pres_5584_Pchm_37.50_Bham_finer/Contour_Data/axial_density_y_131 yes no no density yes 1 0 line_0.0262 ()/surface/line-surface line_0.0264 0.0881 0.0264 1 0.0264/plot plot yes M4.00_N2_Pres_5584_Pchm_37.50_Bham_finer/Contour_Data/axial_pressure_y_132 yes no no total-pressure yes 1 0 line_0.0264 ()/plot plot yes M4.00_N2_Pres_5584_Pchm_37.50_Bham_finer/Contour_Data/axial_mach_y_132 yes no no mach yes 1 0 line_0.0264 ()/plot plot yes M4.00_N2_Pres_5584_Pchm_37.50_Bham_finer/Contour_Data/axial_temperature_y_132 yes no no temperature yes 1 0 line_0.0264 ()/plot plot yes M4.00_N2_Pres_5584_Pchm_37.50_Bham_finer/Contour_Data/axial_density_y_132 yes no no density yes 1 0 line_0.0264 ()/surface/line-surface line_0.0266 0.0881 0.0266 1 0.0266/plot plot yes M4.00_N2_Pres_5584_Pchm_37.50_Bham_finer/Contour_Data/axial_pressure_y_133 yes no no total-pressure yes 1 0 line_0.0266 ()/plot plot yes M4.00_N2_Pres_5584_Pchm_37.50_Bham_finer/Contour_Data/axial_mach_y_133 yes no no mach yes 1 0 line_0.0266 ()/plot plot yes M4.00_N2_Pres_5584_Pchm_37.50_Bham_finer/Contour_Data/axial_temperature_y_133 yes no no temperature yes 1 0 line_0.0266 ()/plot plot yes M4.00_N2_Pres_5584_Pchm_37.50_Bham_finer/Contour_Data/axial_density_y_133 yes no no density yes 1 0 line_0.0266 ()/surface/line-surface line_0.0268 0.0881 0.0268 1 0.0268/plot plot yes M4.00_N2_Pres_5584_Pchm_37.50_Bham_finer/Contour_Data/axial_pressure_y_134 yes no no total-pressure yes 1 0 line_0.0268 ()/plot plot yes M4.00_N2_Pres_5584_Pchm_37.50_Bham_finer/Contour_Data/axial_mach_y_134 yes no no mach yes 1 0 line_0.0268 ()/plot plot yes M4.00_N2_Pres_5584_Pchm_37.50_Bham_finer/Contour_Data/axial_temperature_y_134 yes no no temperature yes 1 0 line_0.0268 ()/plot plot yes M4.00_N2_Pres_5584_Pchm_37.50_Bham_finer/Contour_Data/axial_density_y_134 yes no no density yes 1 0 line_0.0268 ()/surface/line-surface line_0.027 0.0881 0.027 1 0.027/plot plot yes M4.00_N2_Pres_5584_Pchm_37.50_Bham_finer/Contour_Data/axial_pressure_y_135 yes no no total-pressure yes 1 0 line_0.027 ()/plot plot yes M4.00_N2_Pres_5584_Pchm_37.50_Bham_finer/Contour_Data/axial_mach_y_135 yes no no mach yes 1 0 line_0.027 ()/plot plot yes M4.00_N2_Pres_5584_Pchm_37.50_Bham_finer/Contour_Data/axial_temperature_y_135 yes no no temperature yes 1 0 line_0.027 ()/plot plot yes M4.00_N2_Pres_5584_Pchm_37.50_Bham_finer/Contour_Data/axial_density_y_135 yes no no density yes 1 0 line_0.027 ()/surface/line-surface line_0.0272 0.0881 0.0272 1 0.0272/plot plot yes M4.00_N2_Pres_5584_Pchm_37.50_Bham_finer/Contour_Data/axial_pressure_y_136 yes no no total-pressure yes 1 0 line_0.0272 ()/plot plot yes M4.00_N2_Pres_5584_Pchm_37.50_Bham_finer/Contour_Data/axial_mach_y_136 yes no no mach yes 1 0 line_0.0272 ()/plot plot yes M4.00_N2_Pres_5584_Pchm_37.50_Bham_finer/Contour_Data/axial_temperature_y_136 yes no no temperature yes 1 0 line_0.0272 ()/plot plot yes M4.00_N2_Pres_5584_Pchm_37.50_Bham_finer/Contour_Data/axial_density_y_136 yes no no density yes 1 0 line_0.0272 ()/surface/line-surface line_0.0274 0.0881 0.0274 1 0.0274/plot plot yes M4.00_N2_Pres_5584_Pchm_37.50_Bham_finer/Contour_Data/axial_pressure_y_137 yes no no total-pressure yes 1 0 line_0.0274 ()/plot plot yes M4.00_N2_Pres_5584_Pchm_37.50_Bham_finer/Contour_Data/axial_mach_y_137 yes no no mach yes 1 0 line_0.0274 ()/plot plot yes M4.00_N2_Pres_5584_Pchm_37.50_Bham_finer/Contour_Data/axial_temperature_y_137 yes no no temperature yes 1 0 line_0.0274 ()/plot plot yes M4.00_N2_Pres_5584_Pchm_37.50_Bham_finer/Contour_Data/axial_density_y_137 yes no no density yes 1 0 line_0.0274 ()/surface/line-surface line_0.0276 0.0881 0.0276 1 0.0276/plot plot yes M4.00_N2_Pres_5584_Pchm_37.50_Bham_finer/Contour_Data/axial_pressure_y_138 yes no no total-pressure yes 1 0 line_0.0276 ()/plot plot yes M4.00_N2_Pres_5584_Pchm_37.50_Bham_finer/Contour_Data/axial_mach_y_138 yes no no mach yes 1 0 line_0.0276 ()/plot plot yes M4.00_N2_Pres_5584_Pchm_37.50_Bham_finer/Contour_Data/axial_temperature_y_138 yes no no temperature yes 1 0 line_0.0276 ()/plot plot yes M4.00_N2_Pres_5584_Pchm_37.50_Bham_finer/Contour_Data/axial_density_y_138 yes no no density yes 1 0 line_0.0276 ()/surface/line-surface line_0.0278 0.0881 0.0278 1 0.0278/plot plot yes M4.00_N2_Pres_5584_Pchm_37.50_Bham_finer/Contour_Data/axial_pressure_y_139 yes no no total-pressure yes 1 0 line_0.0278 ()/plot plot yes M4.00_N2_Pres_5584_Pchm_37.50_Bham_finer/Contour_Data/axial_mach_y_139 yes no no mach yes 1 0 line_0.0278 ()/plot plot yes M4.00_N2_Pres_5584_Pchm_37.50_Bham_finer/Contour_Data/axial_temperature_y_139 yes no no temperature yes 1 0 line_0.0278 ()/plot plot yes M4.00_N2_Pres_5584_Pchm_37.50_Bham_finer/Contour_Data/axial_density_y_139 yes no no density yes 1 0 line_0.0278 ()/surface/line-surface line_0.028 0.0881 0.028 1 0.028/plot plot yes M4.00_N2_Pres_5584_Pchm_37.50_Bham_finer/Contour_Data/axial_pressure_y_140 yes no no total-pressure yes 1 0 line_0.028 ()/plot plot yes M4.00_N2_Pres_5584_Pchm_37.50_Bham_finer/Contour_Data/axial_mach_y_140 yes no no mach yes 1 0 line_0.028 ()/plot plot yes M4.00_N2_Pres_5584_Pchm_37.50_Bham_finer/Contour_Data/axial_temperature_y_140 yes no no temperature yes 1 0 line_0.028 ()/plot plot yes M4.00_N2_Pres_5584_Pchm_37.50_Bham_finer/Contour_Data/axial_density_y_140 yes no no density yes 1 0 line_0.028 ()/surface/line-surface line_0.0282 0.0881 0.0282 1 0.0282/plot plot yes M4.00_N2_Pres_5584_Pchm_37.50_Bham_finer/Contour_Data/axial_pressure_y_141 yes no no total-pressure yes 1 0 line_0.0282 ()/plot plot yes M4.00_N2_Pres_5584_Pchm_37.50_Bham_finer/Contour_Data/axial_mach_y_141 yes no no mach yes 1 0 line_0.0282 ()/plot plot yes M4.00_N2_Pres_5584_Pchm_37.50_Bham_finer/Contour_Data/axial_temperature_y_141 yes no no temperature yes 1 0 line_0.0282 ()/plot plot yes M4.00_N2_Pres_5584_Pchm_37.50_Bham_finer/Contour_Data/axial_density_y_141 yes no no density yes 1 0 line_0.0282 ()/surface/line-surface line_0.0284 0.0881 0.0284 1 0.0284/plot plot yes M4.00_N2_Pres_5584_Pchm_37.50_Bham_finer/Contour_Data/axial_pressure_y_142 yes no no total-pressure yes 1 0 line_0.0284 ()/plot plot yes M4.00_N2_Pres_5584_Pchm_37.50_Bham_finer/Contour_Data/axial_mach_y_142 yes no no mach yes 1 0 line_0.0284 ()/plot plot yes M4.00_N2_Pres_5584_Pchm_37.50_Bham_finer/Contour_Data/axial_temperature_y_142 yes no no temperature yes 1 0 line_0.0284 ()/plot plot yes M4.00_N2_Pres_5584_Pchm_37.50_Bham_finer/Contour_Data/axial_density_y_142 yes no no density yes 1 0 line_0.0284 ()/surface/line-surface line_0.0286 0.0881 0.0286 1 0.0286/plot plot yes M4.00_N2_Pres_5584_Pchm_37.50_Bham_finer/Contour_Data/axial_pressure_y_143 yes no no total-pressure yes 1 0 line_0.0286 ()/plot plot yes M4.00_N2_Pres_5584_Pchm_37.50_Bham_finer/Contour_Data/axial_mach_y_143 yes no no mach yes 1 0 line_0.0286 ()/plot plot yes M4.00_N2_Pres_5584_Pchm_37.50_Bham_finer/Contour_Data/axial_temperature_y_143 yes no no temperature yes 1 0 line_0.0286 ()/plot plot yes M4.00_N2_Pres_5584_Pchm_37.50_Bham_finer/Contour_Data/axial_density_y_143 yes no no density yes 1 0 line_0.0286 ()/surface/line-surface line_0.0288 0.0881 0.0288 1 0.0288/plot plot yes M4.00_N2_Pres_5584_Pchm_37.50_Bham_finer/Contour_Data/axial_pressure_y_144 yes no no total-pressure yes 1 0 line_0.0288 ()/plot plot yes M4.00_N2_Pres_5584_Pchm_37.50_Bham_finer/Contour_Data/axial_mach_y_144 yes no no mach yes 1 0 line_0.0288 ()/plot plot yes M4.00_N2_Pres_5584_Pchm_37.50_Bham_finer/Contour_Data/axial_temperature_y_144 yes no no temperature yes 1 0 line_0.0288 ()/plot plot yes M4.00_N2_Pres_5584_Pchm_37.50_Bham_finer/Contour_Data/axial_density_y_144 yes no no density yes 1 0 line_0.0288 ()/surface/line-surface line_0.029 0.0881 0.029 1 0.029/plot plot yes M4.00_N2_Pres_5584_Pchm_37.50_Bham_finer/Contour_Data/axial_pressure_y_145 yes no no total-pressure yes 1 0 line_0.029 ()/plot plot yes M4.00_N2_Pres_5584_Pchm_37.50_Bham_finer/Contour_Data/axial_mach_y_145 yes no no mach yes 1 0 line_0.029 ()/plot plot yes M4.00_N2_Pres_5584_Pchm_37.50_Bham_finer/Contour_Data/axial_temperature_y_145 yes no no temperature yes 1 0 line_0.029 ()/plot plot yes M4.00_N2_Pres_5584_Pchm_37.50_Bham_finer/Contour_Data/axial_density_y_145 yes no no density yes 1 0 line_0.029 ()/surface/line-surface line_0.0292 0.0881 0.0292 1 0.0292/plot plot yes M4.00_N2_Pres_5584_Pchm_37.50_Bham_finer/Contour_Data/axial_pressure_y_146 yes no no total-pressure yes 1 0 line_0.0292 ()/plot plot yes M4.00_N2_Pres_5584_Pchm_37.50_Bham_finer/Contour_Data/axial_mach_y_146 yes no no mach yes 1 0 line_0.0292 ()/plot plot yes M4.00_N2_Pres_5584_Pchm_37.50_Bham_finer/Contour_Data/axial_temperature_y_146 yes no no temperature yes 1 0 line_0.0292 ()/plot plot yes M4.00_N2_Pres_5584_Pchm_37.50_Bham_finer/Contour_Data/axial_density_y_146 yes no no density yes 1 0 line_0.0292 ()/surface/line-surface line_0.0294 0.0881 0.0294 1 0.0294/plot plot yes M4.00_N2_Pres_5584_Pchm_37.50_Bham_finer/Contour_Data/axial_pressure_y_147 yes no no total-pressure yes 1 0 line_0.0294 ()/plot plot yes M4.00_N2_Pres_5584_Pchm_37.50_Bham_finer/Contour_Data/axial_mach_y_147 yes no no mach yes 1 0 line_0.0294 ()/plot plot yes M4.00_N2_Pres_5584_Pchm_37.50_Bham_finer/Contour_Data/axial_temperature_y_147 yes no no temperature yes 1 0 line_0.0294 ()/plot plot yes M4.00_N2_Pres_5584_Pchm_37.50_Bham_finer/Contour_Data/axial_density_y_147 yes no no density yes 1 0 line_0.0294 ()/surface/line-surface line_0.0296 0.0881 0.0296 1 0.0296/plot plot yes M4.00_N2_Pres_5584_Pchm_37.50_Bham_finer/Contour_Data/axial_pressure_y_148 yes no no total-pressure yes 1 0 line_0.0296 ()/plot plot yes M4.00_N2_Pres_5584_Pchm_37.50_Bham_finer/Contour_Data/axial_mach_y_148 yes no no mach yes 1 0 line_0.0296 ()/plot plot yes M4.00_N2_Pres_5584_Pchm_37.50_Bham_finer/Contour_Data/axial_temperature_y_148 yes no no temperature yes 1 0 line_0.0296 ()/plot plot yes M4.00_N2_Pres_5584_Pchm_37.50_Bham_finer/Contour_Data/axial_density_y_148 yes no no density yes 1 0 line_0.0296 ()/surface/line-surface line_0.0298 0.0881 0.0298 1 0.0298/plot plot yes M4.00_N2_Pres_5584_Pchm_37.50_Bham_finer/Contour_Data/axial_pressure_y_149 yes no no total-pressure yes 1 0 line_0.0298 ()/plot plot yes M4.00_N2_Pres_5584_Pchm_37.50_Bham_finer/Contour_Data/axial_mach_y_149 yes no no mach yes 1 0 line_0.0298 ()/plot plot yes M4.00_N2_Pres_5584_Pchm_37.50_Bham_finer/Contour_Data/axial_temperature_y_149 yes no no temperature yes 1 0 line_0.0298 ()/plot plot yes M4.00_N2_Pres_5584_Pchm_37.50_Bham_finer/Contour_Data/axial_density_y_149 yes no no density yes 1 0 line_0.0298 ()/surface/line-surface line_0.03 0.0881 0.03 1 0.03/plot plot yes M4.00_N2_Pres_5584_Pchm_37.50_Bham_finer/Contour_Data/axial_pressure_y_150 yes no no total-pressure yes 1 0 line_0.03 ()/plot plot yes M4.00_N2_Pres_5584_Pchm_37.50_Bham_finer/Contour_Data/axial_mach_y_150 yes no no mach yes 1 0 line_0.03 ()/plot plot yes M4.00_N2_Pres_5584_Pchm_37.50_Bham_finer/Contour_Data/axial_temperature_y_150 yes no no temperature yes 1 0 line_0.03 ()/plot plot yes M4.00_N2_Pres_5584_Pchm_37.50_Bham_finer/Contour_Data/axial_density_y_150 yes no no density yes 1 0 line_0.03 ()#f


> 
adjoint/                mesh/                   report/
define/                 parallel/               server/
display/                plot/                   solve/
exit                    preferences/            surface/
file/                   print-license-usage     views/

> ;(ti-menu-load-string (format #f "/preferences/appearance graphics-background-color-1 255 255 255"))
;(ti-menu-load-string (format #f "/preferences/appearance graphics-background-color-2 255 255 255"))

adjoint/                mesh/                   report/
define/                 parallel/               server/
display/                plot/                   solve/
exit                    preferences/            surface/
file/                   print-license-usage     views/

> 
adjoint/                mesh/                   report/
define/                 parallel/               server/
display/                plot/                   solve/
exit                    preferences/            surface/
file/                   print-license-usage     views/

> ;(ti-menu-load-string (format #f "/display/views autoscale")
;(ti-menu-load-string (format #f "/display/set/windows ruler? yes")
;(ti-menu-load-string (format #f "/display/save-picture mach-contour")

adjoint/                mesh/                   report/
define/                 parallel/               server/
display/                plot/                   solve/
exit                    preferences/            surface/
file/                   print-license-usage     views/

> ;(ti-menu-load-string (format #f "/display/objects create contour temp-contour field temperature surfaces-list int_fluid () colormap color bgr-modern format %0.4f position 3 font-size 0.05 size 35 length 0.3 width 1.2 () ()"))
;(ti-menu-load-string (format #f "/display/objects/display temp-contour")
;(ti-menu-load-string (format #f "/display/views autoscale")
;(ti-menu-load-string (format #f "/display/set/windows ruler? yes")
;(ti-menu-load-string (format #f "/display/save-picture temp-contour")

adjoint/                mesh/                   report/
define/                 parallel/               server/
display/                plot/                   solve/
exit                    preferences/            surface/
file/                   print-license-usage     views/

> (ti-menu-load-string (format #f "/file/write-case M4.00_N2_Pres_5584_Pchm_37.50_Bham_finer/CFD_Data.cas y"))
/file/write-case M4.00_N2_Pres_5584_Pchm_37.50_Bham_finer/CFD_Data.cas Fast-loading "/apps/applications/ansys/2023R1/1/default/v231/fluent/fluent23.1.0/addons/afd/lib/hdfio.bin"
Done.

Writing to d13s9b1.arc4.leeds.ac.uk:"/nobackup/scldr/ACRE/M4.00_N2_Pres_5584_Pchm_37.50_Bham_finer/CFD_Data.cas.h5" in NODE0 mode and compression level 1 ...
Grouping cells for Laplace smoothing ...
     5548459 cells,     2 zones ...
    11151582 faces,    18 zones ...
     5531758 nodes,     1 zone  ...
  Done.

  Writing automatic adaption criteria ...
  Done.
Done.
yinvalid command [y]
#t


> (ti-menu-load-string (format #f "/file/write-data M4.00_N2_Pres_5584_Pchm_37.50_Bham_finer/CFD_Data.dat y"))
/file/write-data M4.00_N2_Pres_5584_Pchm_37.50_Bham_finer/CFD_Data.dat 
Writing to d13s9b1.arc4.leeds.ac.uk:"/nobackup/scldr/ACRE/M4.00_N2_Pres_5584_Pchm_37.50_Bham_finer/CFD_Data.dat.h5" in NODE0 mode and compression level 1 ...
  Writing results.
Done.
yinvalid command [y]
#t


> 
adjoint/                mesh/                   report/
define/                 parallel/               server/
display/                plot/                   solve/
exit                    preferences/            surface/
file/                   print-license-usage     views/

> exit 
Posting ANSYS Product Improvement Program performance data 
Done.
Auto-Transcript Stop Time:  12:03:33, 08 Jan 2024 
Total Transcript Time: 1 Hour 41 Minute 18 Second.

Automatic transcript closed.
