/apps/applications/ansys/2023R1/1/default/v231/fluent/fluent23.1.0/bin/fluent -r23.1.0 -t 40 2ddp -g -i /nobackup/scldr/ACRE/CFD_Macro_DBS.scm
/apps/applications/ansys/2023R1/1/default/v231/fluent/fluent23.1.0/cortex/lnamd64/cortex.23.1.0 -f fluent -g -i /nobackup/scldr/ACRE/CFD_Macro_DBS.scm (fluent "2ddp -pshmem  -host -r23.1.0 -t40 -mpi=intel -path/apps/applications/ansys/2023R1/1/default/v231/fluent -ssh")

Opening input/output transcript to file "/nobackup/scldr/ACRE/fluent-20231103-092826-75066.trn".
Auto-Transcript Start Time:  09:28:26, 03 Nov 2023 
/apps/applications/ansys/2023R1/1/default/v231/fluent/fluent23.1.0/bin/fluent -r23.1.0 2ddp -pshmem -host -t40 -mpi=intel -path/apps/applications/ansys/2023R1/1/default/v231/fluent -ssh -cx d13s9b1.arc4.leeds.ac.uk:45163:36900
Starting /apps/applications/ansys/2023R1/1/default/v231/fluent/fluent23.1.0/lnamd64/2ddp_host/fluent.23.1.0 host -cx d13s9b1.arc4.leeds.ac.uk:45163:36900 "(list (rpsetvar (QUOTE parallel/function) "fluent 2ddp -flux -node -r23.1.0 -t40 -pshmem -mpi=intel -ssh") (rpsetvar (QUOTE parallel/rhost) "") (rpsetvar (QUOTE parallel/ruser) "") (rpsetvar (QUOTE parallel/nprocs_string) "40") (rpsetvar (QUOTE parallel/auto-spawn?) #t) (rpsetvar (QUOTE parallel/trace-level) 0) (rpsetvar (QUOTE parallel/remote-shell) 1) (rpsetvar (QUOTE parallel/path) "/apps/applications/ansys/2023R1/1/default/v231/fluent") (rpsetvar (QUOTE parallel/hostsfile) "") (rpsetvar (QUOTE gpuapp/devices) ""))"

              Welcome to ANSYS Fluent 2023 R1

              Copyright 1987-2023 ANSYS, Inc. All Rights Reserved.
              Unauthorized use, distribution or duplication is prohibited.
              This product is subject to U.S. laws governing export and re-export.
              For full Legal Notice, see documentation.

Build Time: Nov 28 2022 09:30:44 EST  Build Id: 10208  
 
Connected License Server List:	1055@ansys-research.leeds.ac.uk

     --------------------------------------------------------------
     This is an academic version of ANSYS FLUENT. Usage of this product
     license is limited to the terms and conditions specified in your ANSYS
     license form, additional terms section.
     --------------------------------------------------------------
Host spawning Node 0 on machine "d13s9b1.arc4.leeds.ac.uk" (unix).
/apps/applications/ansys/2023R1/1/default/v231/fluent/fluent23.1.0/bin/fluent -r23.1.0 2ddp -flux -node -t40 -pshmem -mpi=intel -ssh -mport 10.12.170.18:10.12.170.18:34599:0
Starting /apps/applications/ansys/2023R1/1/default/v231/fluent/fluent23.1.0/multiport/mpi/lnamd64/intel2021/bin/mpirun --rsh=ssh -f /tmp/fluent-appfile.scldr.75450 -genv FI_PROVIDER tcp -genv FLUENT_ARCH lnamd64 -genv I_MPI_DEBUG 0 -genv I_MPI_ADJUST_REDUCE 2 -genv I_MPI_ADJUST_ALLREDUCE 2 -genv I_MPI_ADJUST_BCAST 8 -genv I_MPI_ADJUST_BARRIER 2 -genv I_MPI_ADJUST_ALLGATHER 2 -genv I_MPI_ADJUST_GATHER 2 -genv I_MPI_ADJUST_ALLTOALL 1 -genv I_MPI_ADJUST_SCATTER 2 -genv I_MPI_ADJUST_SCATTERV 2 -genv I_MPI_ADJUST_ALLGATHERV 2 -genv I_MPI_ADJUST_GATHERV 2 -genv I_MPI_PLATFORM auto -genv PYTHONHOME /apps/applications/ansys/2023R1/1/default/v231/fluent/fluent23.1.0/../../commonfiles/CPython/3_7/linx64/Release/python -genv FLUENT_PROD_DIR /apps/applications/ansys/2023R1/1/default/v231/fluent/fluent23.1.0 -genv FLUENT_AFFINITY 0 -genv I_MPI_PIN enable -genv KMP_AFFINITY disabled -n 40 /apps/applications/ansys/2023R1/1/default/v231/fluent/fluent23.1.0/lnamd64/2ddp_node/fluent_mpi.23.1.0 node -mpiw intel -pic shmem -mport 10.12.170.18:10.12.170.18:34599:0

---------------------------------------------------------------------------------------
ID     Hostname              Core   O.S.      PID          Vendor                     
---------------------------------------------------------------------------------------
n0-39  d13s9b1.arc4.leeds.a  40/40  Linux-64  75503-75542  Intel(R) Xeon(R) Gold 6230 
host   d13s9b1.arc4.leeds.a         Linux-64  75261        Intel(R) Xeon(R) Gold 6230 

MPI Option Selected: intel
Selected system interconnect: shared-memory
---------------------------------------------------------------------------------------


Initializing SGE
Done.
Cleanup script file is /nobackup/scldr/ACRE/cleanup-fluent-d13s9b1.arc4.leeds.ac.uk-75261.sh

Posting ANSYS Product Improvement Program startup data
Done.

Reading journal file /nobackup/scldr/ACRE/CFD_Macro_DBS.scm...

> (ti-menu-load-string (format #f "file/read-case /nobackup/scldr/ACRE/M2.25_N2_Pres_5222_Pres_170_DBS_30000/Mesh.msh ok"))
file/read-case /nobackup/scldr/ACRE/M2.25_N2_Pres_5222_Pres_170_DBS_30000/Mesh.msh 
Reading "/nobackup/scldr/ACRE/M2.25_N2_Pres_5222_Pres_170_DBS_30000/Mesh.msh"...

Buffering for file scan...

  557906 nodes.
  555776 quadrilateral cells, zone 14.
 1109423 2D interior faces, zone 15.
     141 2D wall faces, zone 16.
      22 2D pressure-inlet faces, zone 17.
     301 2D wall faces, zone 18.
     298 2D wall faces, zone 19.
    1342 2D wall faces, zone 20.
      25 2D pressure-outlet faces, zone 21.
     383 2D wall faces, zone 22.
    1746 2D axis faces, zone 23.

Building...
     mesh
	auto partitioning mesh by Metis (fast),
	distributing mesh
		parts........................................,
		faces........................................,
		nodes........................................,
		cells........................................,
        bandwidth reduction using Reverse Cuthill-McKee: 13666/140 = 97.6143
     materials,
     interface,
     domains,
     zones,
	axis
	right_reactor_wall
	outlet
	top_reactor_wall
	left_reactor_wall
	nozzle_wall
	inlet
	reservoir_wall
	int_fluid
	fluid
     parallel,
Done.
Warning: The use of axis boundary conditions is not appropriate for
         a 2D/3D flow problem. Please consider changing the zone
         type to symmetry or wall, or the problem to axisymmetric.

Warning: The use of axis boundary conditions is not appropriate for
         a 2D/3D flow problem. Please consider changing the zone
         type to symmetry or wall, or the problem to axisymmetric.

okinvalid command [ok]
#t


> (ti-menu-load-string (format #f "/mesh/scale 0.001 0.001"))
/mesh/scale 0.001 0.001#t


> (ti-menu-load-string (format #f "/define/models/axisymmetric yes"))
/define/models/axisymmetric yes#t


> (ti-menu-load-string (format #f "/define/models/solver/density-based-implicit yes"))
/define/models/solver/density-based-implicit yes#t
; density-based explicit, pressure-based or density-based-implicit
(ti-menu-load-string (format #f "/define/models/energy yes yes yes"))
/define/models/energy yes yes invalid command [yes]
yes#t
  ; enable energy model?, compute viscout energy dissipation?, Including diffusion at inlets?
(ti-menu-load-string (format #f "/define/models/viscous/kw-sst yes"))
/define/models/viscous/kw-sst yes#t


> (ti-menu-load-string (format #f "(rpsetvar' sst-a1 0.31)"))
(rpsetvar' sst-a1 0.31)
sst-a1
#t
  ; 0.31
(ti-menu-load-string (format #f "(rpsetvar' sst-kappa 0.41)"))
(rpsetvar' sst-kappa 0.41)
sst-kappa
#t
; 0.41
(ti-menu-load-string (format #f "(rpsetvar' sst-beta-i2 0.0828)"))
(rpsetvar' sst-beta-i2 0.0828)
sst-beta-i2
#t
 ; 0.0828
(ti-menu-load-string (format #f "(rpsetvar' sst-beta-i1 0.075)"))
(rpsetvar' sst-beta-i1 0.075)
sst-beta-i1
#t
 ; 0.075
(ti-menu-load-string (format #f "(rpsetvar' sst-sig-w2 1.168)"))
(rpsetvar' sst-sig-w2 1.168)
sst-sig-w2
#t
 ; 1.168
(ti-menu-load-string (format #f "(rpsetvar' sst-sig-w1 2)"))
(rpsetvar' sst-sig-w1 2)
sst-sig-w1
#t
 ; 2
(ti-menu-load-string (format #f "(rpsetvar' sst-sig-k2 1)"))
(rpsetvar' sst-sig-k2 1)
sst-sig-k2
#t
 ; 1
(ti-menu-load-string (format #f "(rpsetvar' sst-sig-k1 1.176)"))
(rpsetvar' sst-sig-k1 1.176)
sst-sig-k1
#t
 ; 1.176
(ti-menu-load-string (format #f "/define/materials/copy fluid nitrogen"))
/define/materials/copy fluid nitrogen
nitrogen copied from database.

#t


> (ti-menu-load-string (format #f "/define/boundary-conditions/fluid fluid yes nitrogen no no no no no no no"))
/define/boundary-conditions/fluid (fluid)
fluid yes nitrogen no no no no no no no#t


> (ti-menu-load-string (format #f "/define/materials delete air"))
/define/materials delete air#t


> (ti-menu-load-string (format #f "/define/materials change-create nitrogen nitrogen yes ideal-gas no no yes sutherland three-coefficient-method 1.663e-05 273.11 106.67 no no no"))
/define/materials change-create nitrogen nitrogen nitrogen is a fluid
yes 
Density
ideal-gas no data required.

no no yes 
Viscosity
sutherland three-coefficient-method 1.663e-05 273.11 106.67 
no no no#t


> (ti-menu-load-string (format #f "/define/models/viscous/turb-compressibility no"))
/define/models/viscous/turb-compressibility no#t
 ; Turning compressbility effects off
(ti-menu-load-string (format #f "/define/boundary-conditions/zone-type inlet pressure-inlet"))
/define/boundary-conditions/zone-type inlet pressure-inlet#t


> (ti-menu-load-string (format #f "/define/boundary-conditions/zone-type outlet pressure-outlet"))
/define/boundary-conditions/zone-type outlet pressure-outlet#t


> (ti-menu-load-string (format #f "/define/boundary-conditions/wall left_reactor_wall 0 no 0 no no no 0 no no no no 0 no 0 no 1"))
/define/boundary-conditions/wall (reservoir_wall nozzle_wall left_reactor_wall top_reactor_wall right_reactor_wall)
left_reactor_wall 0 no 0 no no no 0 no no no no 0 no 0 no 1#t


> (ti-menu-load-string (format #f "/define/boundary-conditions/wall nozzle_wall 0 no 0 no no no 0 no no no no 0 no 0 no 1"))
/define/boundary-conditions/wall (reservoir_wall nozzle_wall left_reactor_wall top_reactor_wall right_reactor_wall)
nozzle_wall 0 no 0 no no no 0 no no no no 0 no 0 no 1#t


> (ti-menu-load-string (format #f "/define/boundary-conditions/wall reservoir_wall 0 no 0 no no no 0 no no no no 0 no 0 no 1"))
/define/boundary-conditions/wall (reservoir_wall nozzle_wall left_reactor_wall top_reactor_wall right_reactor_wall)
reservoir_wall 0 no 0 no no no 0 no no no no 0 no 0 no 1#t


> (ti-menu-load-string (format #f "/define/boundary-conditions/wall top_reactor_wall 0 no 0 no no no 0 no no no no 0 no 0 no 1"))
/define/boundary-conditions/wall (reservoir_wall nozzle_wall left_reactor_wall top_reactor_wall right_reactor_wall)
top_reactor_wall 0 no 0 no no no 0 no no no no 0 no 0 no 1#t


> (ti-menu-load-string (format #f "/define/boundary-conditions/wall right_reactor_wall 0 no 0 no no no 0 no no no no 0 no 0 no 1"))
/define/boundary-conditions/wall (reservoir_wall nozzle_wall left_reactor_wall top_reactor_wall right_reactor_wall)
right_reactor_wall 0 no 0 no no no 0 no no no no 0 no 0 no 1#t


> (ti-menu-load-string (format #f "/define/boundary-conditions/pressure-inlet inlet yes no 5222.73 no 0 no 300 no yes no no yes 1 1"))
/define/boundary-conditions/pressure-inlet (inlet)
inlet yes no 5222.73 no 0 no 300 no yes no no yes 1 1#t


> (ti-menu-load-string (format #f "/define/boundary-conditions/pressure-outlet outlet yes no 170.65 no 300 no yes no no yes 1 1 yes no no"))
/define/boundary-conditions/pressure-outlet (outlet)
outlet yes no 170.65 no 300 no yes no no yes 1 1 yes no noYou must select one of the Backflow Pressure Specification options.
#t


> (ti-menu-load-string (format #f "/define/operating-conditions/operating-pressure 0"))
/define/operating-conditions/operating-pressure 0#t
 ; |Value in Pa|
(ti-menu-load-string (format #f "/solve/monitors/residual/convergence-criteria 1e-8 1e-8 1e-8 1e-8 1e-8 1e-8"))
/solve/monitors/residual/convergence-criteria 1e-8 1e-8 1e-8 1e-8 1e-8 1e-8#t


> (ti-menu-load-string (format #f "/solve/set/discretization-scheme/amg-c 1"))
/solve/set/discretization-scheme/amg-c 1#t
		; [0 1 4 6] = [First Order, Second Order, QUICK, Third Order]
(ti-menu-load-string (format #f "/solve/set/high-speed-numerics enable? yes"))
/solve/set/high-speed-numerics enable? yes
Enabling adaptive high-speed numerics for all Mach.
  Reducing AMG termination criterion for flow (<0.01)
  Activating divergence prevention
  Activating limiter filter
  Activating high-speed numerics
#t
		; [0 1 4 6] = [First Order, Second Order, QUICK, Third Order]
(ti-menu-load-string (format #f "/solve/set/discretization-scheme/k 1"))
/solve/set/discretization-scheme/k 1#t
		; [0 1 4 6] = [First Order, Second Order, QUICK, Third Order]

(ti-menu-load-string (format #f "/solve/set/discretization-scheme/omega 1"))
/solve/set/discretization-scheme/omega 1#t
		; [0 1 4 6] = [First Order, Second Order, QUICK, Third Order]
(ti-menu-load-string (format #f "/solve/set/courant-number 25"))
/solve/set/courant-number 25#t
 ;
(ti-menu-load-string (format #f "/solve/set/flux-type no 0"))
/solve/set/flux-type Roe-FDS = 0 AUSM = 1 
no Invalid integer.
0#t
 				; [0 1], Rhie-Chow Distance, Rhie-Chow momentum

(ti-menu-load-string (format #f "/solve/set/warped-face-gradient-correction enable? yes no"))
/solve/set/warped-face-gradient-correction enable? yes  
 Warped-Face Gradient Correction enabled. 
 Options:
 Fast mode 
 Memory saving mode 
no
 Memory saving mode will be used.#t
 ;

;This is just to help convergence, i have left relaxation parameters as default and it seems to converge fine.
(ti-menu-load-string (format #f "/solve/set/high-order-term-relaxation enable? yes"))
/solve/set/high-order-term-relaxation enable? yes#t
; 
; This sets pseudo transient using automating conservative timestepping with a timestep factor of 0.5. This acts as under-relaxation.


adjoint/                mesh/                   report/
define/                 parallel/               server/
display/                plot/                   solve/
exit                    preferences/            surface/
file/                   print-license-usage     views/

> ; setup report definitions
(ti-menu-load-string (format #f "/solve/report-definitions add max-mach surface-vertexmax field mach-number surface-names axis"))
/solve/report-definitions add max-mach surface-vertexmax field mach-number surface-names axis#t
;
(ti-menu-load-string (format #f "/solve/report-files/add max-mach report-defs max-mach"))
/solve/report-files/add max-mach report-defs max-mach#t
;

(ti-menu-load-string (format #f "/solve/report-definitions add min-temp surface-vertexmin field temperature surface-names axis"))
/solve/report-definitions add min-temp surface-vertexmin field temperature surface-names axis#t
;
(ti-menu-load-string (format #f "/solve/report-files/add min-temp report-defs min-temp"))
/solve/report-files/add min-temp report-defs min-temp#t
;

(ti-menu-load-string (format #f "/solve/report-files/edit max-mach file-name M2.25_N2_Pres_5222_Pres_170_DBS_30000/max-mach-convergence.txt"))
/solve/report-files/edit max-mach file-name M2.25_N2_Pres_5222_Pres_170_DBS_30000/max-mach-convergence.txt#t


> (ti-menu-load-string (format #f "/solve/report-files/edit min-temp file-name M2.25_N2_Pres_5222_Pres_170_DBS_30000/min-temp-convergence.txt"))
/solve/report-files/edit min-temp file-name M2.25_N2_Pres_5222_Pres_170_DBS_30000/min-temp-convergence.txt#t


> 
adjoint/                mesh/                   report/
define/                 parallel/               server/
display/                plot/                   solve/
exit                    preferences/            surface/
file/                   print-license-usage     views/

> 
adjoint/                mesh/                   report/
define/                 parallel/               server/
display/                plot/                   solve/
exit                    preferences/            surface/
file/                   print-license-usage     views/

> ; Initialisation settings and number of itterations
(ti-menu-load-string (format #f "/solve/init/hyb-initialization"))
/solve/init/hyb-initialization
Initialize using the hybrid initialization method.

Checking case topology... 
-This case has both inlets & outlets 
-Pressure information is available at the boundaries

	iter		scalar-0		scalar-1

	1		1.000000e+00	1.000000e+00
	2		6.289595e-07	4.855663e-06
	3		8.977236e-08	8.326917e-07
	4		2.118837e-08	1.682235e-07
	5		6.748718e-09	4.134565e-08
	6		1.982212e-09	8.579469e-09
	7		4.198496e-10	2.251721e-09
	8		1.023876e-10	4.947858e-10
	9		3.586297e-11	8.656900e-11
	10		1.610520e-11	2.339066e-11

Hybrid initialization is done.
#t


> (ti-menu-load-string (format #f "solve init fmg y"))
solve init fmg y
Creating multigrid levels... 
 Grid Level  0: 555776 cells, 1113681 faces, 557906 nodes;  40 clusters
 Grid Level  1: 140552 cells, 562265 faces, 557906 nodes;  40 clusters
 Grid Level  1: 140552 cells, 317405 faces,      0 nodes
 Grid Level  2:  41839 cells, 319431 faces, 557906 nodes;  40 clusters
 Grid Level  2:  41839 cells, 108827 faces,      0 nodes
 Grid Level  3:  13118 cells, 194410 faces, 557906 nodes;  40 clusters
 Grid Level  3:  13118 cells,  38120 faces,      0 nodes
 Grid Level  4:   4417 cells, 126020 faces, 557906 nodes;  40 clusters
 Grid Level  4:   4417 cells,  14674 faces,      0 nodes
 Grid Level  5:   1522 cells,  83493 faces, 557906 nodes;  40 clusters
 Grid Level  5:   1522 cells,   6288 faces,      0 nodes
Done.


FMG: Converge FAS on level 5


FMG: Converge FAS on level 4


FMG: Converge FAS on level 3


FMG: Converge FAS on level 2


FMG: Converge FAS on level 1
0.->1.->2.->3.->4.->5.<<<<<
#t


> 
adjoint/                mesh/                   report/
define/                 parallel/               server/
display/                plot/                   solve/
exit                    preferences/            surface/
file/                   print-license-usage     views/

> (ti-menu-load-string (format #f "/mesh/adapt/cell-registers/add yplusrefine type yplus-ystar max-allowed 0.5 min-allowed 0.25 q () q () q ()"))
/mesh/adapt/cell-registers/add yplusrefine type yplus-ystar max-allowed 0.5 min-allowed 0.25 q ()
 q ()
()
 q ()
()
#t


> 
adjoint/                mesh/                   report/
define/                 parallel/               server/
display/                plot/                   solve/
exit                    preferences/            surface/
file/                   print-license-usage     views/

> (ti-menu-load-string (format #f "/mesh/adapt/manage-criteria/add criteria1 type expression refinement-expression \"yplusrefine\" "))
/mesh/adapt/manage-criteria/add criteria1 type expression refinement-expression "yplusrefine" #t


> (ti-menu-load-string (format #f "/mesh/adapt/manage-criteria/edit criteria1 frequency 250"))
/mesh/adapt/manage-criteria/edit criteria1 frequency 250#t


> (ti-menu-load-string (format #f "/mesh/adapt/adapt-mesh"))
/mesh/adapt/adapt-mesh#t


> (ti-menu-load-string (format #f "/solve/iterate 50"))
/solve/iterate 50
  iter  continuity  x-velocity  y-velocity      energy           k       omega     time/iter

Adapting mesh...
done.
     1  1.0000e+00  1.0000e+00  1.0000e+00  1.0000e+00  9.4561e-01  6.0210e-01  0:00:35   49
     2  6.3311e-01  3.5330e-01  3.6236e-01  5.2359e-01  8.3475e-01  1.5826e-01  0:00:31   48
     3  4.7659e-01  9.7052e-02  1.1109e-01  1.8956e-01  7.0486e-01  3.7748e-02  0:00:28   47
     4  4.0057e-01  2.8089e-02  4.1548e-02  6.7607e-02  4.2454e-01  1.4788e-02  0:00:25   46
     5  3.5718e-01  1.0002e-02  1.7342e-02  2.8724e-02  1.5098e-01  1.0955e-02  0:00:23   45
     6  3.2705e-01  5.4872e-03  9.6811e-03  1.8244e-02  4.0482e-02  7.9961e-03  0:00:21   44
     7  2.9824e-01  4.1763e-03  7.4023e-03  1.4808e-02  1.1666e-02  6.5934e-03  0:00:20   43
     8  2.7012e-01  3.5035e-03  6.5466e-03  1.2852e-02  4.5217e-03  7.2026e-03  0:00:19   42
     9  2.4348e-01  3.0117e-03  6.1504e-03  1.1363e-02  2.6081e-03  7.4840e-03  0:00:18   41
    10  2.1974e-01  2.6178e-03  6.1008e-03  1.0175e-02  1.9328e-03  7.3548e-03  0:00:17   40
    11  1.9899e-01  2.2845e-03  6.0144e-03  9.1814e-03  1.6296e-03  6.9655e-03  0:00:16   39

  iter  continuity  x-velocity  y-velocity      energy           k       omega     time/iter
    12  1.8115e-01  2.0027e-03  5.9031e-03  8.3395e-03  1.4617e-03  6.4917e-03  0:00:15   38
    13  1.6579e-01  1.7626e-03  5.7755e-03  7.6233e-03  1.3562e-03  5.9691e-03  0:00:15   37
    14  1.5233e-01  1.5573e-03  5.6731e-03  7.0062e-03  1.2871e-03  5.4663e-03  0:00:14   36
    15  1.4019e-01  1.3823e-03  5.6155e-03  6.4648e-03  1.2435e-03  4.9968e-03  0:00:13   35
    16  1.2892e-01  1.2319e-03  5.5616e-03  5.9757e-03  1.2244e-03  4.5782e-03  0:00:13   34
    17  1.1850e-01  1.1020e-03  5.5300e-03  5.5414e-03  1.2235e-03  4.2182e-03  0:00:12   33
    18  1.0931e-01  9.8963e-04  5.5397e-03  5.1650e-03  1.2335e-03  3.9301e-03  0:00:12   32
    19  1.0194e-01  8.9221e-04  5.5144e-03  4.8550e-03  1.2519e-03  3.7528e-03  0:00:12   31
    20  9.6932e-02  8.0790e-04  5.4330e-03  4.6306e-03  1.2776e-03  3.6093e-03  0:00:11   30
    21  9.4513e-02  7.3516e-04  5.3775e-03  4.5051e-03  1.3096e-03  3.4708e-03  0:00:11   29
    22  9.4112e-02  6.7261e-04  5.3229e-03  4.4531e-03  1.3459e-03  3.3293e-03  0:00:11   28

  iter  continuity  x-velocity  y-velocity      energy           k       omega     time/iter
    23  9.4456e-02  6.1885e-04  5.1890e-03  4.3872e-03  1.3868e-03  3.1776e-03  0:00:10   27
    24  9.4100e-02  5.7268e-04  5.0575e-03  4.2770e-03  1.4307e-03  3.0139e-03  0:00:10   26
    25  9.2344e-02  5.3301e-04  4.9415e-03  4.1092e-03  1.4762e-03  2.8327e-03  0:00:09   25
    26  8.8815e-02  4.9894e-04  4.8495e-03  3.8926e-03  1.5222e-03  2.6386e-03  0:00:09   24
    27  8.3301e-02  4.6966e-04  4.7800e-03  3.6252e-03  1.5681e-03  2.4335e-03  0:00:09   23
 time step reduced in 1 cells due to excessive pressure change
    28  7.6290e-02  4.4438e-04  4.7385e-03  3.3121e-03  1.6125e-03  2.2194e-03  0:00:08   22
 time step reduced in 3 cells due to excessive pressure change
    29  6.9068e-02  4.2250e-04  4.7059e-03  3.0065e-03  1.6549e-03  1.9982e-03  0:00:08   21
 time step reduced in 4 cells due to excessive pressure change
    30  6.2755e-02  4.0344e-04  4.6717e-03  2.7545e-03  1.6948e-03  1.7773e-03  0:00:07   20
 time step reduced in 5 cells due to excessive pressure change
    31  5.7888e-02  3.8674e-04  4.6433e-03  2.5691e-03  1.7321e-03  1.5780e-03  0:00:07   19
 time step reduced in 4 cells due to excessive pressure change
    32  5.4713e-02  3.7196e-04  4.6193e-03  2.4601e-03  1.7648e-03  1.5304e-03  0:00:07   18
 time step reduced in 5 cells due to excessive pressure change
    33  5.3155e-02  3.5885e-04  4.6018e-03  2.4077e-03  1.7933e-03  1.3740e-03  0:00:06   17
 time step reduced in 4 cells due to excessive pressure change

  iter  continuity  x-velocity  y-velocity      energy           k       omega     time/iter
    34  5.2897e-02  3.4706e-04  4.5820e-03  2.4016e-03  1.8177e-03  1.3753e-03  0:00:06   16
 time step reduced in 3 cells due to excessive pressure change
    35  5.3590e-02  3.3639e-04  4.5568e-03  2.4284e-03  1.8377e-03  1.4706e-03  0:00:06   15
 time step reduced in 1 cells due to excessive pressure change
    36  5.4851e-02  3.2665e-04  4.5199e-03  2.4749e-03  1.8550e-03  1.6027e-03  0:00:05   14
    37  5.6253e-02  3.1771e-04  4.4649e-03  2.5241e-03  1.8677e-03  1.7367e-03  0:00:05   13
    38  5.7616e-02  3.0944e-04  4.3913e-03  2.5703e-03  1.8780e-03  1.8597e-03  0:00:04   12
    39  5.8811e-02  3.0181e-04  4.3124e-03  2.6089e-03  1.8861e-03  1.9745e-03  0:00:04   11
    40  5.9754e-02  2.9474e-04  4.2159e-03  2.6367e-03  1.8913e-03  2.0762e-03  0:00:04   10
    41  6.0364e-02  2.8819e-04  4.1114e-03  2.6498e-03  1.8963e-03  2.1558e-03  0:00:03    9
    42  6.0566e-02  2.8214e-04  4.0040e-03  2.6451e-03  1.8989e-03  2.2092e-03  0:00:03    8
    43  6.0348e-02  2.7659e-04  3.8974e-03  2.6227e-03  1.8991e-03  2.2376e-03  0:00:03    7
    44  5.9750e-02  2.7148e-04  3.7919e-03  2.5841e-03  1.8983e-03  2.2368e-03  0:00:02    6

  iter  continuity  x-velocity  y-velocity      energy           k       omega     time/iter
    45  5.8780e-02  2.6678e-04  3.6878e-03  2.5299e-03  1.8967e-03  2.2068e-03  0:00:02    5
    46  5.7474e-02  2.6249e-04  3.5895e-03  2.4619e-03  1.8962e-03  2.1514e-03  0:00:01    4
    47  5.5872e-02  2.5857e-04  3.5002e-03  2.3820e-03  1.8956e-03  2.0737e-03  0:00:01    3
    48  5.4015e-02  2.5496e-04  3.4162e-03  2.2922e-03  1.8939e-03  1.9794e-03  0:00:01    2
    49  5.1957e-02  2.5163e-04  3.3328e-03  2.1946e-03  1.8932e-03  1.8740e-03  0:00:00    1
    50  4.9770e-02  2.4853e-04  3.2483e-03  2.0938e-03  1.8909e-03  1.7509e-03  0:00:00    0
#t


> (ti-menu-load-string (format #f "/mesh/adapt/adapt-mesh"))
/mesh/adapt/adapt-mesh#t


> (ti-menu-load-string (format #f "/solve/iterate 50"))
/solve/iterate 50
  iter  continuity  x-velocity  y-velocity      energy           k       omega     time/iter
    50  4.9770e-02  2.4853e-04  3.2483e-03  2.0938e-03  1.8909e-03  1.7509e-03  0:00:18   50
    51  4.7556e-02  2.4562e-04  3.1611e-03  1.9950e-03  1.8893e-03  1.6114e-03  0:00:17   49
    52  4.5374e-02  2.4287e-04  3.0762e-03  1.9006e-03  1.8878e-03  1.4577e-03  0:00:17   48
    53  4.3316e-02  2.4025e-04  2.9926e-03  1.8144e-03  1.8865e-03  1.2941e-03  0:00:17   47
    54  4.1419e-02  2.3771e-04  2.9085e-03  1.7380e-03  1.8863e-03  1.1265e-03  0:00:16   46
    55  3.9715e-02  2.3522e-04  2.8227e-03  1.6721e-03  1.8858e-03  9.6193e-04  0:00:16   45
    56  3.8230e-02  2.3276e-04  2.7332e-03  1.6174e-03  1.8866e-03  8.2136e-04  0:00:16   44
    57  3.6988e-02  2.3032e-04  2.6404e-03  1.5745e-03  1.8868e-03  7.1413e-04  0:00:16   43
    58  3.6017e-02  2.2787e-04  2.5495e-03  1.5432e-03  1.8893e-03  6.4393e-04  0:00:15   42
    59  3.5303e-02  2.2546e-04  2.4761e-03  1.5230e-03  1.8928e-03  6.2323e-04  0:00:15   41
    60  3.4858e-02  2.2299e-04  2.3872e-03  1.5138e-03  1.8984e-03  7.0532e-04  0:00:15   40

  iter  continuity  x-velocity  y-velocity      energy           k       omega     time/iter
    61  3.4619e-02  2.2048e-04  2.2877e-03  1.5129e-03  1.9061e-03  8.4233e-04  0:00:14   39
    62  3.4562e-02  2.1797e-04  2.1869e-03  1.5186e-03  1.9162e-03  9.8075e-04  0:00:14   38
    63  3.4618e-02  2.1546e-04  2.0866e-03  1.5268e-03  1.9287e-03  1.0827e-03  0:00:14   37
    64  3.4674e-02  2.1296e-04  1.9913e-03  1.5331e-03  1.9448e-03  1.1742e-03  0:00:13   36
    65  3.4731e-02  2.1050e-04  1.9027e-03  1.5372e-03  1.9661e-03  1.2501e-03  0:00:13   35
    66  3.4747e-02  2.0807e-04  1.8218e-03  1.5379e-03  1.9891e-03  1.3109e-03  0:00:12   34
    67  3.4750e-02  2.0568e-04  1.7483e-03  1.5381e-03  2.0181e-03  1.3586e-03  0:00:12   33
    68  3.4708e-02  2.0334e-04  1.6824e-03  1.5355e-03  2.0512e-03  1.3933e-03  0:00:12   32
    69  3.4597e-02  2.0106e-04  1.6238e-03  1.5287e-03  2.0894e-03  1.4150e-03  0:00:11   31
    70  3.4397e-02  1.9884e-04  1.5723e-03  1.5172e-03  2.1337e-03  1.4243e-03  0:00:11   30
    71  3.4094e-02  1.9670e-04  1.5267e-03  1.5007e-03  2.1839e-03  1.4206e-03  0:00:11   29

  iter  continuity  x-velocity  y-velocity      energy           k       omega     time/iter
    72  3.3728e-02  1.9463e-04  1.4869e-03  1.4816e-03  2.2393e-03  1.4068e-03  0:00:10   28
    73  3.3314e-02  1.9265e-04  1.4527e-03  1.4604e-03  2.3005e-03  1.3851e-03  0:00:10   27
    74  3.2863e-02  1.9074e-04  1.4225e-03  1.4377e-03  2.3669e-03  1.3573e-03  0:00:10   26
    75  3.2384e-02  1.8893e-04  1.3956e-03  1.4136e-03  2.4374e-03  1.3241e-03  0:00:09   25
    76  3.1885e-02  1.8720e-04  1.3714e-03  1.3882e-03  2.5123e-03  1.2860e-03  0:00:09   24
    77  3.1373e-02  1.8556e-04  1.3493e-03  1.3617e-03  2.5889e-03  1.2441e-03  0:00:08   23
    78  3.0859e-02  1.8401e-04  1.3292e-03  1.3348e-03  2.6672e-03  1.1993e-03  0:00:08   22
    79  3.0351e-02  1.8255e-04  1.3104e-03  1.3080e-03  2.7470e-03  1.1527e-03  0:00:08   21
    80  2.9854e-02  1.8118e-04  1.2927e-03  1.2816e-03  2.8285e-03  1.1047e-03  0:00:07   20
    81  2.9366e-02  1.7991e-04  1.2758e-03  1.2551e-03  2.9122e-03  1.0556e-03  0:00:07   19
    82  2.8897e-02  1.7872e-04  1.2596e-03  1.2292e-03  2.9962e-03  1.0056e-03  0:00:07   18

  iter  continuity  x-velocity  y-velocity      energy           k       omega     time/iter
    83  2.8456e-02  1.7763e-04  1.2442e-03  1.2047e-03  3.0804e-03  9.5535e-04  0:00:06   17
    84  2.8049e-02  1.7662e-04  1.2299e-03  1.1818e-03  3.1677e-03  9.0534e-04  0:00:06   16
    85  2.7674e-02  1.7571e-04  1.2161e-03  1.1603e-03  3.2576e-03  8.5599e-04  0:00:06   15
    86  2.7332e-02  1.7488e-04  1.2029e-03  1.1404e-03  3.3511e-03  8.0758e-04  0:00:05   14
    87  2.7022e-02  1.7414e-04  1.1903e-03  1.1221e-03  3.4508e-03  7.6047e-04  0:00:05   13
    88  2.6743e-02  1.7347e-04  1.1781e-03  1.1052e-03  3.5672e-03  7.1485e-04  0:00:04   12
    89  2.6494e-02  1.7288e-04  1.1662e-03  1.0898e-03  3.6916e-03  6.7107e-04  0:00:04   11
    90  2.6270e-02  1.7236e-04  1.1545e-03  1.0757e-03  3.8135e-03  6.2940e-04  0:00:04   10
    91  2.6070e-02  1.7191e-04  1.1431e-03  1.0628e-03  3.9382e-03  5.8997e-04  0:00:03    9
    92  2.5888e-02  1.7151e-04  1.1323e-03  1.0509e-03  4.0680e-03  5.5353e-04  0:00:03    8
    93  2.5724e-02  1.7117e-04  1.1217e-03  1.0400e-03  4.2046e-03  5.2028e-04  0:00:03    7

  iter  continuity  x-velocity  y-velocity      energy           k       omega     time/iter
    94  2.5574e-02  1.7088e-04  1.1113e-03  1.0298e-03  4.3502e-03  4.9065e-04  0:00:03    6
    95  2.5432e-02  1.7062e-04  1.1012e-03  1.0202e-03  4.5036e-03  4.6537e-04  0:00:02    5
    96  2.5293e-02  1.7039e-04  1.0911e-03  1.0109e-03  4.6606e-03  4.4465e-04  0:00:02    4
    97  2.5163e-02  1.7018e-04  1.0816e-03  1.0021e-03  4.8188e-03  4.2761e-04  0:00:01    3
    98  2.5040e-02  1.6999e-04  1.0725e-03  9.9395e-04  4.9793e-03  4.1396e-04  0:00:01    2
    99  2.4923e-02  1.6980e-04  1.0639e-03  9.8629e-04  5.1341e-03  4.0273e-04  0:00:00    1
   100  2.4803e-02  1.6962e-04  1.0556e-03  9.7865e-04  5.2868e-03  3.9365e-04  0:00:00    0
#t


> (ti-menu-load-string (format #f "/mesh/adapt/adapt-mesh"))
/mesh/adapt/adapt-mesh#t


> (ti-menu-load-string (format #f "/solve/iterate 50"))
/solve/iterate 50
  iter  continuity  x-velocity  y-velocity      energy           k       omega     time/iter
   100  2.4803e-02  1.6962e-04  1.0556e-03  9.7865e-04  5.2868e-03  3.9365e-04  0:00:19   50
   101  2.4688e-02  1.6942e-04  1.0478e-03  9.7155e-04  5.4336e-03  3.8722e-04  0:00:18   49
   102  2.4580e-02  1.6921e-04  1.0404e-03  9.6499e-04  5.5711e-03  3.8186e-04  0:00:18   48
   103  2.4471e-02  1.6899e-04  1.0340e-03  9.5908e-04  5.6949e-03  3.7735e-04  0:00:17   47
   104  2.4357e-02  1.6874e-04  1.0280e-03  9.5290e-04  5.8090e-03  3.7362e-04  0:00:17   46
   105  2.4238e-02  1.6845e-04  1.0218e-03  9.4645e-04  5.9051e-03  3.7073e-04  0:00:16   45
   106  2.4118e-02  1.6814e-04  1.0159e-03  9.3996e-04  5.9875e-03  3.6831e-04  0:00:16   44
   107  2.3999e-02  1.6778e-04  1.0107e-03  9.3358e-04  6.0546e-03  3.6638e-04  0:00:17   43
   108  2.3877e-02  1.6739e-04  1.0056e-03  9.2724e-04  6.1044e-03  3.6506e-04  0:00:16   42
   109  2.3753e-02  1.6695e-04  1.0007e-03  9.2095e-04  6.1399e-03  3.6402e-04  0:00:16   41
   110  2.3629e-02  1.6648e-04  9.9623e-04  9.1479e-04  6.1609e-03  3.6341e-04  0:00:15   40

  iter  continuity  x-velocity  y-velocity      energy           k       omega     time/iter
   111  2.3506e-02  1.6595e-04  9.9206e-04  9.0881e-04  6.1684e-03  3.6373e-04  0:00:15   39
   112  2.3383e-02  1.6539e-04  9.8820e-04  9.0300e-04  6.1645e-03  3.6456e-04  0:00:14   38
   113  2.3262e-02  1.6479e-04  9.8455e-04  8.9738e-04  6.1517e-03  3.6589e-04  0:00:14   37
   114  2.3143e-02  1.6415e-04  9.8106e-04  8.9192e-04  6.1291e-03  3.6761e-04  0:00:13   36
   115  2.3025e-02  1.6346e-04  9.7769e-04  8.8666e-04  6.0983e-03  3.7001e-04  0:00:13   35
   116  2.2910e-02  1.6275e-04  9.7451e-04  8.8162e-04  6.0600e-03  3.7287e-04  0:00:13   34
   117  2.2798e-02  1.6200e-04  9.7149e-04  8.7679e-04  6.0111e-03  3.7619e-04  0:00:12   33
   118  2.2688e-02  1.6122e-04  9.6861e-04  8.7217e-04  5.9571e-03  3.7982e-04  0:00:12   32
   119  2.2582e-02  1.6042e-04  9.6587e-04  8.6776e-04  5.8967e-03  3.8350e-04  0:00:11   31
   120  2.2479e-02  1.5959e-04  9.6326e-04  8.6356e-04  5.8332e-03  3.8741e-04  0:00:11   30
   121  2.2380e-02  1.5874e-04  9.6080e-04  8.5958e-04  5.7633e-03  3.9157e-04  0:00:11   29

  iter  continuity  x-velocity  y-velocity      energy           k       omega     time/iter
   122  2.2285e-02  1.5787e-04  9.5851e-04  8.5582e-04  5.6900e-03  3.9534e-04  0:00:10   28
   123  2.2193e-02  1.5698e-04  9.5641e-04  8.5227e-04  5.6142e-03  3.9871e-04  0:00:10   27
   124  2.2106e-02  1.5608e-04  9.5452e-04  8.4895e-04  5.5356e-03  4.0163e-04  0:00:10   26
   125  2.2023e-02  1.5517e-04  9.5286e-04  8.4586e-04  5.4543e-03  4.0410e-04  0:00:09   25
   126  2.1943e-02  1.5425e-04  9.5148e-04  8.4294e-04  5.3720e-03  4.0609e-04  0:00:09   24
   127  2.1867e-02  1.5332e-04  9.5039e-04  8.4018e-04  5.2881e-03  4.0762e-04  0:00:08   23
   128  2.1795e-02  1.5238e-04  9.4964e-04  8.3759e-04  5.2032e-03  4.0869e-04  0:00:08   22
   129  2.1725e-02  1.5143e-04  9.4925e-04  8.3501e-04  5.1186e-03  4.0981e-04  0:00:08   21
   130  2.1660e-02  1.5048e-04  9.4922e-04  8.3256e-04  5.0344e-03  4.1061e-04  0:00:07   20
   131  2.1597e-02  1.4951e-04  9.4957e-04  8.3034e-04  4.9513e-03  4.1095e-04  0:00:07   19
   132  2.1537e-02  1.4854e-04  9.5031e-04  8.2823e-04  4.8698e-03  4.1082e-04  0:00:07   18

  iter  continuity  x-velocity  y-velocity      energy           k       omega     time/iter
   133  2.1479e-02  1.4756e-04  9.5143e-04  8.2622e-04  4.7895e-03  4.1024e-04  0:00:06   17
   134  2.1423e-02  1.4658e-04  9.5293e-04  8.2427e-04  4.7115e-03  4.0923e-04  0:00:06   16
   135  2.1368e-02  1.4558e-04  9.5479e-04  8.2236e-04  4.6357e-03  4.0786e-04  0:00:06   15
   136  2.1315e-02  1.4457e-04  9.5699e-04  8.2054e-04  4.5627e-03  4.0625e-04  0:00:05   14
   137  2.1262e-02  1.4355e-04  9.5953e-04  8.1874e-04  4.4919e-03  4.0432e-04  0:00:05   13
   138  2.1208e-02  1.4252e-04  9.6238e-04  8.1690e-04  4.4233e-03  4.0209e-04  0:00:04   12
   139  2.1155e-02  1.4148e-04  9.6557e-04  8.1501e-04  4.3573e-03  3.9969e-04  0:00:04   11
   140  2.1101e-02  1.4042e-04  9.6906e-04  8.1308e-04  4.2934e-03  3.9716e-04  0:00:04   10
   141  2.1046e-02  1.3934e-04  9.7285e-04  8.1108e-04  4.2319e-03  3.9444e-04  0:00:03    9
   142  2.0990e-02  1.3825e-04  9.7694e-04  8.0902e-04  4.1728e-03  3.9153e-04  0:00:03    8
   143  2.0933e-02  1.3714e-04  9.8135e-04  8.0691e-04  4.1156e-03  3.8848e-04  0:00:03    7

  iter  continuity  x-velocity  y-velocity      energy           k       omega     time/iter
   144  2.0874e-02  1.3602e-04  9.8609e-04  8.0475e-04  4.0606e-03  3.8529e-04  0:00:02    6
   145  2.0814e-02  1.3488e-04  9.9119e-04  8.0251e-04  4.0079e-03  3.8198e-04  0:00:02    5
   146  2.0752e-02  1.3372e-04  9.9667e-04  8.0024e-04  3.9573e-03  3.7858e-04  0:00:02    4
   147  2.0689e-02  1.3255e-04  1.0026e-03  7.9787e-04  3.9089e-03  3.7511e-04  0:00:01    3
   148  2.0625e-02  1.3136e-04  1.0089e-03  7.9555e-04  3.8626e-03  3.7160e-04  0:00:01    2
   149  2.0558e-02  1.3015e-04  1.0158e-03  7.9324e-04  3.8182e-03  3.6807e-04  0:00:00    1
   150  2.0491e-02  1.2893e-04  1.0231e-03  7.9091e-04  3.7751e-03  3.6453e-04  0:00:00    0
#t


> (ti-menu-load-string (format #f "/mesh/adapt/adapt-mesh"))
/mesh/adapt/adapt-mesh#t


> (ti-menu-load-string (format #f "/solve/iterate 50"))
/solve/iterate 50
  iter  continuity  x-velocity  y-velocity      energy           k       omega     time/iter
   150  2.0491e-02  1.2893e-04  1.0231e-03  7.9091e-04  3.7751e-03  3.6453e-04  0:00:19   50
   151  2.0423e-02  1.2770e-04  1.0311e-03  7.8859e-04  3.7336e-03  3.6102e-04  0:00:17   49
   152  2.0354e-02  1.2644e-04  1.0396e-03  7.8632e-04  3.6934e-03  3.5758e-04  0:00:17   48
   153  2.0284e-02  1.2518e-04  1.0488e-03  7.8410e-04  3.6539e-03  3.5418e-04  0:00:17   47
   154  2.0214e-02  1.2390e-04  1.0586e-03  7.8195e-04  3.6150e-03  3.5083e-04  0:00:17   46
   155  2.0143e-02  1.2261e-04  1.0691e-03  7.7976e-04  3.5766e-03  3.4754e-04  0:00:16   45
   156  2.0073e-02  1.2130e-04  1.0802e-03  7.7769e-04  3.5385e-03  3.4431e-04  0:00:16   44
   157  2.0002e-02  1.1999e-04  1.0920e-03  7.7579e-04  3.5007e-03  3.4115e-04  0:00:16   43
   158  1.9932e-02  1.1867e-04  1.1043e-03  7.7404e-04  3.4634e-03  3.3810e-04  0:00:15   42
   159  1.9862e-02  1.1734e-04  1.1173e-03  7.7242e-04  3.4260e-03  3.3518e-04  0:00:15   41
   160  1.9792e-02  1.1600e-04  1.1307e-03  7.7092e-04  3.3897e-03  3.3236e-04  0:00:15   40

  iter  continuity  x-velocity  y-velocity      energy           k       omega     time/iter
   161  1.9722e-02  1.1465e-04  1.1446e-03  7.6954e-04  3.3546e-03  3.2965e-04  0:00:14   39
   162  1.9652e-02  1.1330e-04  1.1589e-03  7.6825e-04  3.3203e-03  3.2704e-04  0:00:14   38
   163  1.9581e-02  1.1195e-04  1.1734e-03  7.6696e-04  3.2868e-03  3.2453e-04  0:00:14   37
   164  1.9510e-02  1.1060e-04  1.1881e-03  7.6581e-04  3.2550e-03  3.2212e-04  0:00:13   36
   165  1.9438e-02  1.0924e-04  1.2029e-03  7.6472e-04  3.2242e-03  3.1983e-04  0:00:13   35
   166  1.9365e-02  1.0789e-04  1.2176e-03  7.6367e-04  3.1943e-03  3.1763e-04  0:00:13   34
   167  1.9290e-02  1.0654e-04  1.2321e-03  7.6262e-04  3.1661e-03  3.1554e-04  0:00:12   33
   168  1.9213e-02  1.0519e-04  1.2463e-03  7.6154e-04  3.1396e-03  3.1354e-04  0:00:12   32
   169  1.9134e-02  1.0385e-04  1.2600e-03  7.6038e-04  3.1141e-03  3.1162e-04  0:00:12   31
   170  1.9053e-02  1.0251e-04  1.2732e-03  7.5910e-04  3.0897e-03  3.0979e-04  0:00:11   30
   171  1.8967e-02  1.0119e-04  1.2856e-03  7.5766e-04  3.0661e-03  3.0806e-04  0:00:11   29

  iter  continuity  x-velocity  y-velocity      energy           k       omega     time/iter
   172  1.8878e-02  9.9873e-05  1.2972e-03  7.5603e-04  3.0433e-03  3.0644e-04  0:00:10   28
   173  1.8785e-02  9.8570e-05  1.3078e-03  7.5415e-04  3.0214e-03  3.0492e-04  0:00:10   27
   174  1.8687e-02  9.7280e-05  1.3173e-03  7.5196e-04  3.0008e-03  3.0347e-04  0:00:10   26
   175  1.8583e-02  9.6005e-05  1.3257e-03  7.4944e-04  2.9814e-03  3.0213e-04  0:00:09   25
   176  1.8472e-02  9.4745e-05  1.3327e-03  7.4653e-04  2.9631e-03  3.0090e-04  0:00:09   24
   177  1.8356e-02  9.3503e-05  1.3384e-03  7.4320e-04  2.9459e-03  2.9971e-04  0:00:09   23
   178  1.8232e-02  9.2279e-05  1.3426e-03  7.3942e-04  2.9298e-03  2.9859e-04  0:00:08   22
   179  1.8101e-02  9.1074e-05  1.3454e-03  7.3514e-04  2.9151e-03  2.9752e-04  0:00:08   21
   180  1.7963e-02  8.9890e-05  1.3465e-03  7.3035e-04  2.9010e-03  2.9652e-04  0:00:07   20
   181  1.7817e-02  8.8727e-05  1.3461e-03  7.2502e-04  2.8871e-03  2.9558e-04  0:00:07   19
   182  1.7662e-02  8.7587e-05  1.3441e-03  7.1914e-04  2.8746e-03  2.9466e-04  0:00:07   18

  iter  continuity  x-velocity  y-velocity      energy           k       omega     time/iter
   183  1.7500e-02  8.6471e-05  1.3405e-03  7.1269e-04  2.8630e-03  2.9381e-04  0:00:06   17
   184  1.7330e-02  8.5378e-05  1.3353e-03  7.0568e-04  2.8525e-03  2.9300e-04  0:00:06   16
   185  1.7153e-02  8.4312e-05  1.3285e-03  6.9812e-04  2.8431e-03  2.9223e-04  0:00:06   15
   186  1.6967e-02  8.3273e-05  1.3201e-03  6.9001e-04  2.8333e-03  2.9153e-04  0:00:05   14
   187  1.6775e-02  8.2261e-05  1.3103e-03  6.8137e-04  2.8230e-03  2.9085e-04  0:00:05   13
   188  1.6575e-02  8.1279e-05  1.2991e-03  6.7223e-04  2.8128e-03  2.9018e-04  0:00:04   12
   189  1.6370e-02  8.0325e-05  1.2865e-03  6.6262e-04  2.8014e-03  2.8952e-04  0:00:04   11
   190  1.6159e-02  7.9400e-05  1.2727e-03  6.5258e-04  2.7898e-03  2.8889e-04  0:00:04   10
   191  1.5942e-02  7.8510e-05  1.2577e-03  6.4216e-04  2.7778e-03  2.8829e-04  0:00:03    9
   192  1.5721e-02  7.7652e-05  1.2417e-03  6.3139e-04  2.7648e-03  2.8773e-04  0:00:03    8
   193  1.5497e-02  7.6829e-05  1.2247e-03  6.2035e-04  2.7509e-03  2.8720e-04  0:00:03    7

  iter  continuity  x-velocity  y-velocity      energy           k       omega     time/iter
   194  1.5270e-02  7.6042e-05  1.2070e-03  6.0908e-04  2.7364e-03  2.8672e-04  0:00:02    6
   195  1.5041e-02  7.5291e-05  1.1886e-03  5.9765e-04  2.7210e-03  2.8626e-04  0:00:02    5
   196  1.4810e-02  7.4578e-05  1.1698e-03  5.8611e-04  2.7043e-03  2.8579e-04  0:00:02    4
   197  1.4580e-02  7.3903e-05  1.1506e-03  5.7457e-04  2.6864e-03  2.8516e-04  0:00:01    3
   198  1.4350e-02  7.3263e-05  1.1312e-03  5.6311e-04  2.6677e-03  2.8419e-04  0:00:01    2
   199  1.4122e-02  7.2662e-05  1.1118e-03  5.5179e-04  2.6480e-03  2.8277e-04  0:00:00    1
   200  1.3897e-02  7.2100e-05  1.0925e-03  5.4071e-04  2.6271e-03  2.8116e-04  0:00:00    0
#t


> (ti-menu-load-string (format #f "/mesh/adapt/adapt-mesh"))
/mesh/adapt/adapt-mesh#t


> (ti-menu-load-string (format #f "/solve/iterate 50"))
/solve/iterate 50
  iter  continuity  x-velocity  y-velocity      energy           k       omega     time/iter
   200  1.3897e-02  7.2100e-05  1.0925e-03  5.4071e-04  2.6271e-03  2.8116e-04  0:00:19   50
   201  1.3675e-02  7.1566e-05  1.0736e-03  5.2992e-04  2.6031e-03  2.7975e-04  0:00:17   49
   202  1.3458e-02  7.1075e-05  1.0551e-03  5.1953e-04  2.5779e-03  2.7863e-04  0:00:17   48
   203  1.3246e-02  7.0624e-05  1.0373e-03  5.0962e-04  2.5516e-03  2.7765e-04  0:00:17   47
   204  1.3041e-02  7.0211e-05  1.0204e-03  5.0026e-04  2.5239e-03  2.7671e-04  0:00:17   46
   205  1.2843e-02  6.9837e-05  1.0044e-03  4.9155e-04  2.4954e-03  2.7576e-04  0:00:16   45
   206  1.2654e-02  6.9500e-05  9.8971e-04  4.8356e-04  2.4662e-03  2.7480e-04  0:00:16   44
   207  1.2473e-02  6.9198e-05  9.7635e-04  4.7637e-04  2.4362e-03  2.7384e-04  0:00:16   43
   208  1.2303e-02  6.8928e-05  9.6450e-04  4.7003e-04  2.4051e-03  2.7289e-04  0:00:15   42
   209  1.2143e-02  6.8690e-05  9.5433e-04  4.6462e-04  2.3729e-03  2.7191e-04  0:00:15   41
   210  1.1996e-02  6.8481e-05  9.4597e-04  4.6018e-04  2.3400e-03  2.7099e-04  0:00:15   40

  iter  continuity  x-velocity  y-velocity      energy           k       omega     time/iter
   211  1.1860e-02  6.8298e-05  9.3953e-04  4.5674e-04  2.3066e-03  2.7010e-04  0:00:14   39
   212  1.1737e-02  6.8140e-05  9.3511e-04  4.5435e-04  2.2727e-03  2.6920e-04  0:00:14   38
   213  1.1628e-02  6.8007e-05  9.3279e-04  4.5301e-04  2.2380e-03  2.6828e-04  0:00:14   37
   214  1.1532e-02  6.7892e-05  9.3262e-04  4.5272e-04  2.2031e-03  2.6737e-04  0:00:13   36
   215  1.1451e-02  6.7794e-05  9.3462e-04  4.5347e-04  2.1680e-03  2.6647e-04  0:00:13   35
   216  1.1384e-02  6.7714e-05  9.3881e-04  4.5526e-04  2.1327e-03  2.6561e-04  0:00:12   34
   217  1.1332e-02  6.7654e-05  9.4516e-04  4.5805e-04  2.0974e-03  2.6480e-04  0:00:12   33
   218  1.1296e-02  6.7609e-05  9.5365e-04  4.6180e-04  2.0620e-03  2.6399e-04  0:00:12   32
   219  1.1274e-02  6.7575e-05  9.6425e-04  4.6648e-04  2.0267e-03  2.6321e-04  0:00:11   31
   220  1.1268e-02  6.7559e-05  9.7687e-04  4.7203e-04  1.9919e-03  2.6243e-04  0:00:11   30
   221  1.1278e-02  6.7560e-05  9.9145e-04  4.7840e-04  1.9575e-03  2.6169e-04  0:00:11   29

  iter  continuity  x-velocity  y-velocity      energy           k       omega     time/iter
   222  1.1303e-02  6.7579e-05  1.0079e-03  4.8549e-04  1.9236e-03  2.6103e-04  0:00:10   28
   223  1.1343e-02  6.7612e-05  1.0261e-03  4.9322e-04  1.8901e-03  2.6042e-04  0:00:10   27
   224  1.1399e-02  6.7663e-05  1.0460e-03  5.0168e-04  1.8570e-03  2.5987e-04  0:00:10   26
   225  1.1470e-02  6.7732e-05  1.0674e-03  5.1078e-04  1.8247e-03  2.5935e-04  0:00:09   25
   226  1.1555e-02  6.7825e-05  1.0903e-03  5.2045e-04  1.7932e-03  2.5882e-04  0:00:09   24
   227  1.1656e-02  6.7938e-05  1.1145e-03  5.3063e-04  1.7624e-03  2.5825e-04  0:00:09   23
   228  1.1769e-02  6.8069e-05  1.1399e-03  5.4125e-04  1.7323e-03  2.5770e-04  0:00:08   22
   229  1.1897e-02  6.8227e-05  1.1664e-03  5.5226e-04  1.7027e-03  2.5715e-04  0:00:08   21
   230  1.2037e-02  6.8411e-05  1.1938e-03  5.6358e-04  1.6736e-03  2.5657e-04  0:00:07   20
   231  1.2189e-02  6.8621e-05  1.2220e-03  5.7516e-04  1.6447e-03  2.5597e-04  0:00:07   19
   232  1.2351e-02  6.8855e-05  1.2508e-03  5.8693e-04  1.6164e-03  2.5535e-04  0:00:07   18

  iter  continuity  x-velocity  y-velocity      energy           k       omega     time/iter
   233  1.2524e-02  6.9115e-05  1.2800e-03  5.9883e-04  1.5885e-03  2.5472e-04  0:00:06   17
   234  1.2705e-02  6.9407e-05  1.3096e-03  6.1081e-04  1.5612e-03  2.5406e-04  0:00:06   16
   235  1.2894e-02  6.9726e-05  1.3394e-03  6.2280e-04  1.5344e-03  2.5338e-04  0:00:06   15
   236  1.3089e-02  7.0075e-05  1.3691e-03  6.3476e-04  1.5082e-03  2.5266e-04  0:00:05   14
   237  1.3290e-02  7.0454e-05  1.3988e-03  6.4666e-04  1.4825e-03  2.5191e-04  0:00:05   13
   238  1.3496e-02  7.0859e-05  1.4284e-03  6.5845e-04  1.4574e-03  3.7737e-04  0:00:04   12
   239  1.3707e-02  7.1294e-05  1.4576e-03  6.7010e-04  1.4326e-03  2.7845e-04  0:00:04   11
   240  1.3920e-02  7.1762e-05  1.4864e-03  6.8159e-04  1.4085e-03  2.5576e-04  0:00:04   10
   241  1.4136e-02  7.2259e-05  1.5147e-03  6.9288e-04  1.3853e-03  2.4977e-04  0:00:03    9
   242  1.4354e-02  7.2779e-05  1.5423e-03  7.0392e-04  1.3627e-03  2.4797e-04  0:00:03    8
   243  1.4571e-02  7.3331e-05  1.5693e-03  7.1465e-04  1.3406e-03  2.4685e-04  0:00:03    7

  iter  continuity  x-velocity  y-velocity      energy           k       omega     time/iter
   244  1.4789e-02  7.3913e-05  1.5955e-03  7.2504e-04  1.3191e-03  2.4586e-04  0:00:02    6
   245  1.5006e-02  7.4522e-05  1.6208e-03  7.3505e-04  1.2980e-03  2.4487e-04  0:00:02    5
   246  1.5220e-02  7.5156e-05  1.6454e-03  7.4466e-04  1.2775e-03  2.4385e-04  0:00:01    4
   247  1.5432e-02  7.5813e-05  1.6689e-03  7.5387e-04  1.2576e-03  2.4280e-04  0:00:01    3
   248  1.5642e-02  7.6499e-05  1.6915e-03  7.6264e-04  1.2382e-03  2.4172e-04  0:00:01    2
   249  1.5847e-02  7.7208e-05  1.7132e-03  7.7099e-04  1.2194e-03  2.4061e-04  0:00:00    1

>> Dividing domain into 40 partitions using Metis.
   Time = 0.0418661 seconds.
   Done.

>> 40 Stored Partitions:
   ----------------------------------------------------------------------
   Collective Partition Statistics:        Minimum   Maximum   Total     
   ----------------------------------------------------------------------
   Cell count                              14268     14496     576869    
   Mean cell count deviation               -1.1%     0.5%      
   Partition boundary cell count           112       558       16085     
   Partition boundary cell count ratio     0.8%      3.9%      2.8%      

   Face count                              28833     29745     1161491   
   Mean face count deviation               -1.6%     1.5%      
   Partition boundary face count           143       746       10394     
   Partition boundary face count ratio     0.5%      2.5%      0.9%      

   Cell weights                            1e+05     1e+05     6e+06     
   Mean cell weight deviation              -13.4%    3.1%      

   Partition neighbor count                1         8         
   ----------------------------------------------------------------------
   Partition Method                        Metis                                
   Stored Partition Count                  40                                   
Done.

Adapting mesh...
done.
   250  8.1910e-01  4.6126e-02  2.8102e-01  6.3680e-02  1.5923e-03  1.4963e-01  0:00:00    0
#t


> (ti-menu-load-string (format #f "/mesh/adapt/adapt-mesh"))
/mesh/adapt/adapt-mesh#t


> 
adjoint/                mesh/                   report/
define/                 parallel/               server/
display/                plot/                   solve/
exit                    preferences/            surface/
file/                   print-license-usage     views/

> (ti-menu-load-string (format #f "/solve/iterate 29750"))
/solve/iterate 29750
  iter  continuity  x-velocity  y-velocity      energy           k       omega     time/iter
   250  8.1910e-01  4.6126e-02  2.8102e-01  6.3680e-02  1.5923e-03  1.4963e-01  4:22:36 29750
   251  4.7334e-01  1.2276e-02  1.0682e-01  2.4378e-02  1.2328e-03  6.8235e-02  3:58:18 29749
   252  3.3272e-01  3.4267e-03  5.0759e-02  1.3071e-02  1.1522e-03  2.3361e-02  3:47:23 29748
   253  2.8008e-01  1.0819e-03  2.9467e-02  1.0183e-02  1.1223e-03  6.8337e-03  3:39:14 29747
   254  2.6020e-01  4.9475e-04  1.9510e-02  9.2261e-03  1.0997e-03  1.8590e-03  3:32:16 29746
   255  2.5010e-01  3.4059e-04  1.2744e-02  8.6692e-03  1.0791e-03  4.7926e-04  3:26:40 29745
   256  2.4057e-01  2.7200e-04  9.0059e-03  8.1581e-03  1.0602e-03  1.6129e-04  3:22:34 29744
   257  2.3004e-01  2.2521e-04  6.8450e-03  7.6474e-03  1.0426e-03  1.2011e-04  3:18:49 29743
   258  2.1897e-01  1.9003e-04  6.1674e-03  7.1523e-03  1.0261e-03  1.1888e-04  3:16:22 29742
   259  2.0784e-01  1.6283e-04  6.0557e-03  6.6846e-03  1.0106e-03  1.2071e-04  3:13:51 29741
   260  1.9701e-01  1.4314e-04  6.1445e-03  6.2512e-03  9.9612e-04  1.2138e-04  3:11:48 29740

  iter  continuity  x-velocity  y-velocity      energy           k       omega     time/iter
   261  1.8682e-01  1.2908e-04  6.1876e-03  5.8599e-03  9.8241e-04  1.2211e-04  3:10:54 29739
   262  1.7752e-01  1.1911e-04  6.1538e-03  5.5162e-03  9.6935e-04  1.2274e-04  3:43:18 29738
   263  1.6911e-01  1.1211e-04  6.0431e-03  5.2153e-03  9.5692e-04  1.2325e-04  3:35:53 29737
   264  1.6150e-01  1.0748e-04  5.8759e-03  4.9517e-03  9.4502e-04  1.2368e-04  3:29:33 29736
   265  1.5465e-01  1.0445e-04  5.6745e-03  4.7212e-03  9.3354e-04  1.2392e-04  3:24:22 29735
   266  1.4843e-01  1.0250e-04  5.4505e-03  4.5175e-03  9.2236e-04  1.2397e-04  3:20:15 29734
   267  1.4270e-01  1.0131e-04  5.2277e-03  4.3341e-03  9.1135e-04  1.2383e-04  3:16:56 29733
   268  1.3746e-01  1.0062e-04  5.0205e-03  4.1700e-03  9.0049e-04  1.2381e-04  3:14:34 29732
   269  1.3265e-01  1.0029e-04  4.8336e-03  4.0227e-03  8.8969e-04  1.2322e-04  3:12:30 29731
   270  1.2821e-01  1.0021e-04  4.6667e-03  3.8900e-03  8.7890e-04  1.2260e-04  3:10:46 29730
   271  1.2410e-01  1.0029e-04  4.5191e-03  3.7696e-03  8.6808e-04  1.2192e-04  3:10:02 29729

  iter  continuity  x-velocity  y-velocity      energy           k       omega     time/iter
   272  1.2028e-01  1.0050e-04  4.3906e-03  3.6596e-03  8.5663e-04  1.2121e-04  3:08:52 29728
   273  1.1670e-01  1.0079e-04  4.2806e-03  3.5584e-03  8.4445e-04  1.2051e-04  3:08:54 29727
   274  1.1335e-01  1.0114e-04  4.1879e-03  3.4650e-03  8.3201e-04  1.1985e-04  3:07:52 29726
   275  1.1020e-01  1.0152e-04  4.1105e-03  3.3786e-03  8.1963e-04  1.1986e-04  3:07:07 29725
   276  1.0723e-01  1.0192e-04  4.0467e-03  3.2983e-03  8.0735e-04  1.1941e-04  3:06:58 29724
   277  1.0443e-01  1.0232e-04  3.9948e-03  3.2238e-03  7.9524e-04  1.1935e-04  3:06:22 29723
   278  1.0178e-01  1.0271e-04  3.9532e-03  3.1545e-03  7.8341e-04  1.1945e-04  3:05:48 29722
   279  9.9283e-02  1.0309e-04  3.9207e-03  3.0900e-03  7.7158e-04  1.1963e-04  3:06:07 29721
   280  9.6919e-02  1.0346e-04  3.8959e-03  3.0300e-03  7.6010e-04  1.1992e-04  3:05:44 29720
   281  9.4686e-02  1.0381e-04  3.8780e-03  2.9743e-03  7.4905e-04  1.2031e-04  3:05:31 29719
   282  9.2573e-02  1.0413e-04  3.8661e-03  2.9224e-03  7.3857e-04  1.2112e-04  3:05:51 29718

  iter  continuity  x-velocity  y-velocity      energy           k       omega     time/iter
   283  9.0568e-02  1.0444e-04  3.8593e-03  2.8739e-03  7.2849e-04  1.2217e-04  3:05:31 29717
   284  8.8666e-02  1.0471e-04  3.8561e-03  2.8286e-03  7.1876e-04  1.2271e-04  3:05:50 29716
   285  8.6853e-02  1.0496e-04  3.8569e-03  2.7860e-03  7.0940e-04  1.2290e-04  3:05:29 29715
   286  8.5120e-02  1.0518e-04  3.8615e-03  2.7457e-03  7.0037e-04  1.2318e-04  3:05:15 29714
   287  8.3447e-02  1.0536e-04  3.8698e-03  2.7072e-03  6.9149e-04  1.2363e-04  3:06:13 29713
   288  8.1847e-02  1.0550e-04  3.8807e-03  2.6710e-03  6.8285e-04  1.2417e-04  3:05:48 29712
   289  8.0325e-02  1.0560e-04  3.8938e-03  2.6372e-03  6.7446e-04  1.2485e-04  3:05:28 29711
   290  7.8870e-02  1.0567e-04  3.9094e-03  2.6054e-03  6.6619e-04  1.2552e-04  3:05:37 29710
   291  7.7482e-02  1.0569e-04  3.9269e-03  2.5757e-03  6.5809e-04  1.2599e-04  3:05:20 29709
   292  7.6153e-02  1.0567e-04  3.9457e-03  2.5477e-03  6.5013e-04  1.2653e-04  3:05:06 29708
   293  7.4883e-02  1.0562e-04  3.9658e-03  2.5215e-03  6.4240e-04  1.2750e-04  3:05:27 29707

  iter  continuity  x-velocity  y-velocity      energy           k       omega     time/iter
   294  7.3668e-02  1.0553e-04  3.9871e-03  2.4970e-03  6.3474e-04  1.2773e-04  3:05:12 29706
   295  7.2508e-02  1.0541e-04  4.0094e-03  2.4742e-03  6.2734e-04  1.2809e-04  3:05:36 29705
   296  7.1400e-02  1.0525e-04  4.0326e-03  2.4530e-03  6.2003e-04  1.2911e-04  3:05:20 29704
   297  7.0344e-02  1.0506e-04  4.0568e-03  2.4333e-03  6.1290e-04  1.2941e-04  3:05:04 29703
   298  6.9338e-02  1.0484e-04  4.0817e-03  2.4152e-03  6.0595e-04  1.2985e-04  3:05:09 29702
   299  6.8381e-02  1.0459e-04  4.1073e-03  2.3986e-03  5.9911e-04  1.3025e-04  3:04:51 29701
   300  6.7470e-02  1.0432e-04  4.1337e-03  2.3834e-03  5.9241e-04  1.3135e-04  3:20:10 29700
   301  6.6605e-02  1.0402e-04  4.1606e-03  2.3696e-03  5.8581e-04  1.3140e-04  3:16:36 29699
   302  6.5784e-02  1.0369e-04  4.1881e-03  2.3571e-03  5.7935e-04  1.3171e-04  3:14:07 29698
   303  6.5003e-02  1.0335e-04  4.2161e-03  2.3458e-03  5.7300e-04  1.3211e-04  3:12:36 29697
   304  6.4263e-02  1.0298e-04  4.2447e-03  2.3356e-03  5.6678e-04  1.3254e-04  3:10:50 29696

  iter  continuity  x-velocity  y-velocity      energy           k       omega     time/iter
   305  6.3561e-02  1.0260e-04  4.2736e-03  2.3266e-03  5.6064e-04  1.3296e-04  3:09:25 29695
   306  6.2894e-02  1.0218e-04  4.3030e-03  2.3184e-03  5.5466e-04  1.3338e-04  3:08:27 29694
   307  6.2264e-02  1.0176e-04  4.3328e-03  2.3113e-03  5.4877e-04  1.3379e-04  3:07:30 29693
   308  6.1666e-02  1.0132e-04  4.3629e-03  2.3051e-03  5.4301e-04  1.3418e-04  3:07:19 29692
   309  6.1101e-02  1.0087e-04  4.3935e-03  2.2997e-03  5.3738e-04  1.3458e-04  3:07:08 29691
   310  6.0563e-02  1.0039e-04  4.4243e-03  2.2950e-03  5.3185e-04  1.3499e-04  3:09:43 29690
   311  6.0055e-02  9.9904e-05  4.4553e-03  2.2911e-03  5.2644e-04  1.3532e-04  3:09:56 29689
   312  5.9577e-02  9.9404e-05  4.4866e-03  2.2879e-03  5.2115e-04  1.3567e-04  3:09:03 29688
   313  5.9125e-02  9.8889e-05  4.5179e-03  2.2854e-03  5.1595e-04  1.3597e-04  3:08:04 29687
   314  5.8701e-02  9.8363e-05  4.5498e-03  2.2835e-03  5.1084e-04  1.3615e-04  3:07:37 29686
   315  5.8304e-02  9.7824e-05  4.5817e-03  2.2823e-03  5.0581e-04  1.3633e-04  3:06:48 29685

  iter  continuity  x-velocity  y-velocity      energy           k       omega     time/iter
   316  5.7932e-02  9.7273e-05  4.6137e-03  2.2816e-03  5.0089e-04  1.3655e-04  3:06:37 29684
   317  5.7585e-02  9.6710e-05  4.6458e-03  2.2815e-03  4.9608e-04  1.3700e-04  3:06:04 29683
   318  5.7262e-02  9.6135e-05  4.6779e-03  2.2820e-03  4.9134e-04  1.3707e-04  3:05:41 29682
   319  5.6962e-02  9.5550e-05  4.7099e-03  2.2830e-03  4.8667e-04  1.3717e-04  3:05:53 29681
   320  5.6685e-02  9.4954e-05  4.7420e-03  2.2845e-03  4.8208e-04  1.3732e-04  3:05:30 29680
   321  5.6431e-02  9.4353e-05  4.7741e-03  2.2864e-03  4.7759e-04  1.3749e-04  3:05:05 29679
   322  5.6198e-02  9.3746e-05  4.8062e-03  2.2889e-03  4.7317e-04  1.3765e-04  3:04:53 29678
   323  5.5987e-02  9.3138e-05  4.8383e-03  2.2919e-03  4.6882e-04  1.3780e-04  3:04:46 29677
   324  5.5795e-02  9.2526e-05  4.8705e-03  2.2953e-03  4.6455e-04  1.3798e-04  3:05:13 29676
   325  5.5623e-02  9.1916e-05  4.9026e-03  2.2992e-03  4.6036e-04  1.3815e-04  3:05:01 29675
   326  5.5470e-02  9.1300e-05  4.9346e-03  2.3035e-03  4.5625e-04  1.3830e-04  3:05:59 29674

  iter  continuity  x-velocity  y-velocity      energy           k       omega     time/iter
   327  5.5335e-02  9.0689e-05  4.9666e-03  2.3081e-03  4.5224e-04  1.3848e-04  3:06:20 29673
   328  5.5217e-02  9.0084e-05  4.9984e-03  2.3131e-03  4.4830e-04  1.3867e-04  3:05:51 29672
   329  5.5115e-02  8.9482e-05  5.0302e-03  2.3185e-03  4.4442e-04  1.3884e-04  3:05:27 29671
   330  5.5029e-02  8.8883e-05  5.0617e-03  2.3242e-03  4.4062e-04  1.3903e-04  3:05:23 29670
   331  5.4958e-02  8.8285e-05  5.0932e-03  2.3301e-03  4.3687e-04  1.3924e-04  3:05:02 29669
   332  5.4901e-02  8.7703e-05  5.1244e-03  2.3363e-03  4.3316e-04  1.3945e-04  3:05:17 29668
   333  5.4856e-02  8.7128e-05  5.1554e-03  2.3427e-03  4.2952e-04  1.3964e-04  3:05:01 29667
   334  5.4823e-02  8.6562e-05  5.1862e-03  2.3493e-03  4.2593e-04  1.3979e-04  3:04:52 29666
   335  5.4802e-02  8.5999e-05  5.2166e-03  2.3561e-03  4.2240e-04  1.3992e-04  3:05:17 29665
   336  5.4792e-02  8.5450e-05  5.2469e-03  2.3631e-03  4.1891e-04  1.4003e-04  3:05:01 29664
   337  5.4793e-02  8.4917e-05  5.2765e-03  2.3703e-03  4.1548e-04  1.4012e-04  3:04:48 29663

  iter  continuity  x-velocity  y-velocity      energy           k       omega     time/iter
   338  5.4805e-02  8.4396e-05  5.3059e-03  2.3775e-03  4.1211e-04  1.4020e-04  3:05:09 29662
   339  5.4827e-02  8.3883e-05  5.3351e-03  2.3850e-03  4.0878e-04  1.4026e-04  3:05:00 29661
   340  5.4858e-02  8.3382e-05  5.3641e-03  2.3925e-03  4.0550e-04  1.4030e-04  3:05:14 29660
   341  5.4898e-02  8.2897e-05  5.3926e-03  2.4001e-03  4.0228e-04  1.4033e-04  3:04:49 29659
   342  5.4947e-02  8.2431e-05  5.4208e-03  2.4078e-03  3.9909e-04  1.4035e-04  3:04:43 29658
   343  5.5003e-02  8.1976e-05  5.4486e-03  2.4156e-03  3.9596e-04  1.4035e-04  3:05:00 29657
   344  5.5067e-02  8.1532e-05  5.4760e-03  2.4234e-03  3.9287e-04  1.4035e-04  3:04:43 29656
   345  5.5138e-02  8.1099e-05  5.5029e-03  2.4313e-03  3.8984e-04  1.4033e-04  3:04:34 29655
   346  5.5215e-02  8.0696e-05  5.5294e-03  2.4391e-03  3.8685e-04  1.4030e-04  3:04:51 29654
   347  5.5298e-02  8.0302e-05  5.5555e-03  2.4470e-03  3.8391e-04  1.4024e-04  3:04:41 29653
   348  5.5386e-02  7.9919e-05  5.5811e-03  2.4548e-03  3.8101e-04  1.4018e-04  3:04:28 29652

  iter  continuity  x-velocity  y-velocity      energy           k       omega     time/iter
   349  5.5479e-02  7.9545e-05  5.6062e-03  2.4626e-03  3.7815e-04  1.4037e-04  3:04:44 29651
   350  5.5577e-02  7.9204e-05  5.6309e-03  2.4704e-03  3.7535e-04  1.4010e-04  3:04:39 29650
   351  5.5678e-02  7.8869e-05  5.6550e-03  2.4781e-03  3.7260e-04  1.3993e-04  3:04:51 29649
   352  5.5783e-02  7.8546e-05  5.6787e-03  2.4857e-03  3.6988e-04  1.3979e-04  3:04:33 29648
   353  5.5891e-02  7.8242e-05  5.7018e-03  2.4933e-03  3.6721e-04  1.3966e-04  3:05:25 29647
   354  5.6001e-02  7.7958e-05  5.7244e-03  2.5008e-03  3.6460e-04  1.3951e-04  3:05:42 29646
   355  5.6114e-02  7.7690e-05  5.7465e-03  2.5082e-03  3.6203e-04  1.3936e-04  3:05:23 29645
   356  5.6229e-02  7.7438e-05  5.7681e-03  2.5154e-03  3.5950e-04  1.3920e-04  3:05:08 29644
   357  5.6346e-02  7.7201e-05  5.7892e-03  2.5226e-03  3.5700e-04  1.3903e-04  3:04:56 29643
   358  5.6463e-02  7.6978e-05  5.8097e-03  2.5296e-03  3.5455e-04  1.3888e-04  3:04:43 29642
   359  5.6582e-02  7.6779e-05  5.8297e-03  2.5365e-03  3.5214e-04  1.3878e-04  3:05:08 29641

  iter  continuity  x-velocity  y-velocity      energy           k       omega     time/iter
   360  5.6701e-02  7.6600e-05  5.8492e-03  2.5433e-03  3.4977e-04  1.3867e-04  3:04:46 29640
   361  5.6820e-02  7.6423e-05  5.8681e-03  2.5499e-03  3.4741e-04  1.3854e-04  3:04:37 29639
   362  5.6940e-02  7.6270e-05  5.8865e-03  2.5564e-03  3.4511e-04  1.3841e-04  3:05:02 29638
   363  5.7060e-02  7.6138e-05  5.9044e-03  2.5627e-03  3.4284e-04  1.3827e-04  3:04:44 29637
   364  5.7179e-02  7.6011e-05  5.9217e-03  2.5689e-03  3.4061e-04  1.3812e-04  3:04:32 29636
   365  5.7298e-02  7.5903e-05  5.9384e-03  2.5749e-03  3.3841e-04  1.3796e-04  3:04:58 29635
   366  5.7416e-02  7.5815e-05  5.9546e-03  2.5807e-03  3.3624e-04  1.3780e-04  3:04:44 29634
   367  5.7534e-02  7.5735e-05  5.9702e-03  2.5864e-03  3.3412e-04  1.3764e-04  3:05:08 29633
   368  5.7650e-02  7.5675e-05  5.9853e-03  2.5919e-03  3.3203e-04  1.3746e-04  3:04:51 29632
   369  5.7765e-02  7.5629e-05  5.9998e-03  2.5973e-03  3.2998e-04  1.3728e-04  3:04:35 29631
   370  5.7879e-02  7.5590e-05  6.0137e-03  2.6024e-03  3.2795e-04  1.3710e-04  3:04:41 29630

  iter  continuity  x-velocity  y-velocity      energy           k       omega     time/iter
   371  5.7991e-02  7.5568e-05  6.0271e-03  2.6074e-03  3.2597e-04  1.3691e-04  3:04:36 29629
   372  5.8102e-02  7.5563e-05  6.0400e-03  2.6122e-03  3.2401e-04  1.3672e-04  3:04:25 29628
   373  5.8211e-02  7.5566e-05  6.0523e-03  2.6169e-03  3.2208e-04  1.3653e-04  3:04:54 29627
   374  5.8319e-02  7.5580e-05  6.0641e-03  2.6214e-03  3.2019e-04  1.3634e-04  3:04:31 29626
   375  5.8424e-02  7.5609e-05  6.0753e-03  2.6257e-03  3.1832e-04  1.3615e-04  3:04:59 29625
   376  5.8528e-02  7.5646e-05  6.0861e-03  2.6298e-03  3.1649e-04  1.3596e-04  3:04:44 29624
   377  5.8630e-02  7.5696e-05  6.0963e-03  2.6337e-03  3.1468e-04  1.3577e-04  3:04:28 29623
   378  5.8731e-02  7.5757e-05  6.1059e-03  2.6375e-03  3.1292e-04  1.3558e-04  3:04:35 29622
   379  5.8828e-02  7.5825e-05  6.1151e-03  2.6411e-03  3.1118e-04  1.3539e-04  3:04:26 29621
   380  5.8924e-02  7.5906e-05  6.1238e-03  2.6445e-03  3.0947e-04  1.3521e-04  3:04:11 29620
   381  5.9018e-02  7.5992e-05  6.1319e-03  2.6478e-03  3.0779e-04  1.3502e-04  3:04:44 29619

  iter  continuity  x-velocity  y-velocity      energy           k       omega     time/iter
   382  5.9109e-02  7.6088e-05  6.1396e-03  2.6509e-03  3.0614e-04  1.3484e-04  3:04:36 29618
   383  5.9198e-02  7.6193e-05  6.1467e-03  2.6538e-03  3.0451e-04  1.3466e-04  3:04:20 29617
   384  5.9285e-02  7.6307e-05  6.1534e-03  2.6565e-03  3.0292e-04  1.3447e-04  3:04:41 29616
   385  5.9369e-02  7.6427e-05  6.1596e-03  2.6591e-03  3.0135e-04  1.3429e-04  3:04:40 29615
   386  5.9451e-02  7.6554e-05  6.1653e-03  2.6615e-03  2.9981e-04  1.3411e-04  3:05:05 29614
   387  5.9530e-02  7.6689e-05  6.1706e-03  2.6637e-03  2.9829e-04  1.3393e-04  3:04:47 29613
   388  5.9607e-02  7.6832e-05  6.1754e-03  2.6658e-03  2.9681e-04  1.3375e-04  3:04:30 29612
   389  5.9682e-02  7.6978e-05  6.1797e-03  2.6677e-03  2.9534e-04  1.3358e-04  3:04:51 29611
   390  5.9753e-02  7.7131e-05  6.1836e-03  2.6694e-03  2.9389e-04  1.3341e-04  3:04:33 29610
   391  5.9822e-02  7.7291e-05  6.1870e-03  2.6710e-03  2.9247e-04  1.3324e-04  3:04:23 29609
   392  5.9889e-02  7.7454e-05  6.1900e-03  2.6724e-03  2.9107e-04  1.3307e-04  3:04:58 29608

  iter  continuity  x-velocity  y-velocity      energy           k       omega     time/iter
   393  5.9953e-02  7.7623e-05  6.1926e-03  2.6737e-03  2.8970e-04  1.3291e-04  3:04:44 29607
   394  6.0014e-02  7.7795e-05  6.1947e-03  2.6748e-03  2.8834e-04  1.3274e-04  3:04:55 29606
   395  6.0073e-02  7.7972e-05  6.1964e-03  2.6758e-03  2.8701e-04  1.3258e-04  3:04:39 29605
   396  6.0130e-02  7.8150e-05  6.1977e-03  2.6766e-03  2.8569e-04  1.3241e-04  3:04:23 29604
   397  6.0183e-02  7.8335e-05  6.1986e-03  2.6772e-03  2.8439e-04  1.3225e-04  3:04:45 29603
   398  6.0234e-02  7.8520e-05  6.1991e-03  2.6777e-03  2.8311e-04  1.3211e-04  3:04:34 29602
   399  6.0283e-02  7.8707e-05  6.1992e-03  2.6781e-03  2.8185e-04  1.3197e-04  3:04:22 29601
   400  6.0328e-02  7.8900e-05  6.1989e-03  2.6783e-03  2.8061e-04  1.3182e-04  3:04:32 29600
   401  6.0372e-02  7.9090e-05  6.1982e-03  2.6784e-03  2.7938e-04  1.3167e-04  3:04:30 29599
   402  6.0412e-02  7.9284e-05  6.1972e-03  2.6783e-03  2.7816e-04  1.3153e-04  3:05:00 29598
   403  6.0450e-02  7.9482e-05  6.1958e-03  2.6781e-03  2.7696e-04  1.3138e-04  3:05:09 29597

  iter  continuity  x-velocity  y-velocity      energy           k       omega     time/iter
   404  6.0486e-02  7.9677e-05  6.1940e-03  2.6777e-03  2.7578e-04  1.3124e-04  3:04:51 29596
   405  6.0519e-02  7.9876e-05  6.1919e-03  2.6773e-03  2.7461e-04  1.3109e-04  3:05:02 29595
   406  6.0550e-02  8.0075e-05  6.1894e-03  2.6767e-03  2.7346e-04  1.3095e-04  3:06:03 29594
   407  6.0578e-02  8.0274e-05  6.1865e-03  2.6759e-03  2.7233e-04  1.3081e-04  3:05:30 29593
   408  6.0603e-02  8.0474e-05  6.1833e-03  2.6750e-03  2.7121e-04  1.3067e-04  3:05:33 29592
   409  6.0626e-02  8.0674e-05  6.1798e-03  2.6740e-03  2.7010e-04  1.3053e-04  3:05:05 29591
   410  6.0646e-02  8.0872e-05  6.1759e-03  2.6729e-03  2.6901e-04  1.3038e-04  3:05:14 29590
   411  6.0665e-02  8.1070e-05  6.1718e-03  2.6717e-03  2.6793e-04  1.3024e-04  3:04:56 29589
   412  6.0680e-02  8.1269e-05  6.1673e-03  2.6703e-03  2.6687e-04  1.3010e-04  3:04:36 29588
   413  6.0693e-02  8.1466e-05  6.1625e-03  2.6688e-03  2.6583e-04  1.2996e-04  3:05:00 29587
   414  6.0704e-02  8.1662e-05  6.1573e-03  2.6673e-03  2.6480e-04  1.2982e-04  3:04:40 29586

  iter  continuity  x-velocity  y-velocity      energy           k       omega     time/iter
   415  6.0713e-02  8.1858e-05  6.1519e-03  2.6655e-03  2.6377e-04  1.2968e-04  3:04:27 29585
   416  6.0719e-02  8.2053e-05  6.1462e-03  2.6637e-03  2.6277e-04  1.2954e-04  3:04:57 29584
   417  6.0723e-02  8.2244e-05  6.1402e-03  2.6618e-03  2.6177e-04  1.2940e-04  3:04:43 29583
   418  6.0724e-02  8.2436e-05  6.1339e-03  2.6597e-03  2.6079e-04  1.2927e-04  3:05:04 29582
   419  6.0723e-02  8.2626e-05  6.1273e-03  2.6576e-03  2.5982e-04  1.2913e-04  3:04:43 29581
   420  6.0720e-02  8.2815e-05  6.1204e-03  2.6553e-03  2.5887e-04  1.2899e-04  3:04:29 29580
   421  6.0715e-02  8.3003e-05  6.1133e-03  2.6530e-03  2.5792e-04  1.2885e-04  3:04:38 29579
   422  6.0707e-02  8.3189e-05  6.1059e-03  2.6505e-03  2.5699e-04  1.2872e-04  3:04:21 29578
   423  6.0698e-02  8.3374e-05  6.0982e-03  2.6480e-03  2.5608e-04  1.2858e-04  3:04:09 29577
   424  6.0686e-02  8.3556e-05  6.0902e-03  2.6453e-03  2.5517e-04  1.2845e-04  3:04:32 29576
   425  6.0672e-02  8.3736e-05  6.0820e-03  2.6425e-03  2.5427e-04  1.2831e-04  3:04:18 29575

  iter  continuity  x-velocity  y-velocity      energy           k       omega     time/iter
   426  6.0656e-02  8.3914e-05  6.0736e-03  2.6397e-03  2.5339e-04  1.2818e-04  3:04:02 29574
   427  6.0638e-02  8.4090e-05  6.0648e-03  2.6367e-03  2.5252e-04  1.2805e-04  3:04:28 29573
   428  6.0618e-02  8.4264e-05  6.0559e-03  2.6337e-03  2.5166e-04  1.2792e-04  3:04:25 29572
   429  6.0595e-02  8.4435e-05  6.0467e-03  2.6306e-03  2.5080e-04  1.2779e-04  3:04:48 29571
   430  6.0572e-02  8.4603e-05  6.0373e-03  2.6274e-03  2.4996e-04  1.2765e-04  3:04:32 29570
   431  6.0546e-02  8.4769e-05  6.0276e-03  2.6241e-03  2.4912e-04  1.2752e-04  3:04:21 29569
   432  6.0518e-02  8.4931e-05  6.0178e-03  2.6207e-03  2.4830e-04  1.2739e-04  3:04:38 29568
   433  6.0488e-02  8.5091e-05  6.0077e-03  2.6173e-03  2.4748e-04  1.2726e-04  3:05:03 29567
   434  6.0456e-02  8.5248e-05  5.9974e-03  2.6137e-03  2.4668e-04  1.2713e-04  3:05:07 29566
   435  6.0422e-02  8.5402e-05  5.9868e-03  2.6101e-03  2.4588e-04  1.2700e-04  3:20:55 29565
   436  6.0387e-02  8.5552e-05  5.9761e-03  2.6064e-03  2.4511e-04  1.2688e-04  3:17:28 29564

  iter  continuity  x-velocity  y-velocity      energy           k       omega     time/iter
   437  6.0349e-02  8.5700e-05  5.9651e-03  2.6026e-03  2.4434e-04  1.2675e-04  3:15:07 29563
   438  6.0310e-02  8.5845e-05  5.9540e-03  2.5988e-03  2.4358e-04  1.2663e-04  3:12:55 29562
   439  6.0269e-02  8.5988e-05  5.9426e-03  2.5948e-03  2.4283e-04  1.2651e-04  3:11:43 29561
   440  6.0226e-02  8.6128e-05  5.9311e-03  2.5908e-03  2.4209e-04  1.2639e-04  3:10:04 29560
   441  6.0182e-02  8.6264e-05  5.9193e-03  2.5867e-03  2.4136e-04  1.2626e-04  3:08:43 29559
   442  6.0135e-02  8.6397e-05  5.9074e-03  2.5826e-03  2.4063e-04  1.2614e-04  3:08:10 29558
   443  6.0087e-02  8.6524e-05  5.8952e-03  2.5784e-03  2.3991e-04  1.2602e-04  3:07:10 29557
   444  6.0036e-02  8.6649e-05  5.8829e-03  2.5741e-03  2.3921e-04  1.2590e-04  3:06:31 29556
   445  5.9985e-02  8.6771e-05  5.8704e-03  2.5697e-03  2.3850e-04  1.2578e-04  3:06:22 29555
   446  5.9931e-02  8.6888e-05  5.8578e-03  2.5653e-03  2.3781e-04  1.2566e-04  3:05:46 29554
   447  5.9876e-02  8.7003e-05  5.8449e-03  2.5608e-03  2.3712e-04  1.2554e-04  3:05:13 29553

  iter  continuity  x-velocity  y-velocity      energy           k       omega     time/iter
   448  5.9819e-02  8.7114e-05  5.8319e-03  2.5562e-03  2.3644e-04  1.2543e-04  3:04:45 29552
   449  5.9760e-02  8.7221e-05  5.8187e-03  2.5516e-03  2.3577e-04  1.2531e-04  3:04:29 29551
   450  5.9700e-02  8.7325e-05  5.8054e-03  2.5469e-03  2.3511e-04  1.2519e-04  3:04:36 29550
   451  5.9638e-02  8.7425e-05  5.7919e-03  2.5421e-03  2.3446e-04  1.2507e-04  3:04:19 29549
   452  5.9575e-02  8.7522e-05  5.7782e-03  2.5373e-03  2.3382e-04  1.2496e-04  3:38:02 29548
   453  5.9510e-02  8.7616e-05  5.7644e-03  2.5324e-03  2.3318e-04  1.2484e-04  3:31:07 29547
   454  5.9443e-02  8.7707e-05  5.7504e-03  2.5275e-03  2.3255e-04  1.2473e-04  3:25:34 29546
   455  5.9375e-02  8.7795e-05  5.7363e-03  2.5225e-03  2.3194e-04  1.2462e-04  3:21:28 29545
   456  5.9306e-02  8.7878e-05  5.7220e-03  2.5175e-03  2.3133e-04  1.2451e-04  3:17:43 29544
   457  5.9234e-02  8.7959e-05  5.7076e-03  2.5124e-03  2.3072e-04  1.2440e-04  3:15:28 29543
   458  5.9162e-02  8.8037e-05  5.6931e-03  2.5072e-03  2.3013e-04  1.2429e-04  3:17:44 29542

  iter  continuity  x-velocity  y-velocity      energy           k       omega     time/iter
   459  5.9088e-02  8.8111e-05  5.6784e-03  2.5020e-03  2.2954e-04  1.2418e-04  3:22:40 29541
   460  5.9013e-02  8.8182e-05  5.6636e-03  2.4967e-03  2.2896e-04  1.2407e-04  3:19:16 29540
   461  5.8936e-02  8.8250e-05  5.6486e-03  2.4914e-03  2.2839e-04  1.2396e-04  3:16:02 29539
   462  5.8857e-02  8.8316e-05  5.6336e-03  2.4861e-03  2.2783e-04  1.2386e-04  3:14:00 29538
   463  5.8778e-02  8.8379e-05  5.6184e-03  2.4807e-03  2.2727e-04  1.2375e-04  3:11:52 29537
   464  5.8697e-02  8.8440e-05  5.6031e-03  2.4752e-03  2.2673e-04  1.2365e-04  3:10:06 29536
   465  5.8615e-02  8.8497e-05  5.5877e-03  2.4698e-03  2.2619e-04  1.2355e-04  3:09:18 29535
   466  5.8531e-02  8.8553e-05  5.5721e-03  2.4642e-03  2.2566e-04  1.2345e-04  3:08:08 29534
   467  5.8446e-02  8.8605e-05  5.5565e-03  2.4586e-03  2.2514e-04  1.2335e-04  3:07:09 29533
   468  5.8360e-02  8.8655e-05  5.5407e-03  2.4530e-03  2.2462e-04  1.2326e-04  3:06:53 29532
   469  5.8272e-02  8.8702e-05  5.5249e-03  2.4473e-03  2.2411e-04  1.2317e-04  3:07:51 29531

  iter  continuity  x-velocity  y-velocity      energy           k       omega     time/iter
   470  5.8183e-02  8.8748e-05  5.5089e-03  2.4416e-03  2.2362e-04  1.2308e-04  3:08:53 29530
   471  5.8093e-02  8.8790e-05  5.4929e-03  2.4359e-03  2.2312e-04  1.2299e-04  3:08:47 29529
   472  5.8002e-02  8.8830e-05  5.4767e-03  2.4301e-03  2.2264e-04  1.2291e-04  3:08:09 29528
   473  5.7909e-02  8.8866e-05  5.4605e-03  2.4242e-03  2.2216e-04  1.2282e-04  3:07:47 29527
   474  5.7816e-02  8.8902e-05  5.4441e-03  2.4184e-03  2.2169e-04  1.2273e-04  3:06:47 29526
   475  5.7721e-02  8.8935e-05  5.4277e-03  2.4125e-03  2.2123e-04  1.2265e-04  3:06:06 29525
   476  5.7625e-02  8.8965e-05  5.4112e-03  2.4065e-03  2.2077e-04  1.2256e-04  3:06:07 29524
   477  5.7528e-02  8.8994e-05  5.3946e-03  2.4006e-03  2.2032e-04  1.2247e-04  3:05:32 29523
   478  5.7429e-02  8.9020e-05  5.3779e-03  2.3945e-03  2.1988e-04  1.2238e-04  3:05:40 29522
   479  5.7330e-02  8.9045e-05  5.3611e-03  2.3885e-03  2.1945e-04  1.2230e-04  3:05:14 29521
   480  5.7229e-02  8.9068e-05  5.3443e-03  2.3824e-03  2.1902e-04  1.2221e-04  3:04:56 29520

  iter  continuity  x-velocity  y-velocity      energy           k       omega     time/iter
   481  5.7128e-02  8.9089e-05  5.3274e-03  2.3763e-03  2.1860e-04  1.2212e-04  3:05:11 29519
   482  5.7025e-02  8.9108e-05  5.3104e-03  2.3702e-03  2.1819e-04  1.2203e-04  3:04:51 29518
   483  5.6921e-02  8.9126e-05  5.2933e-03  2.3640e-03  2.1778e-04  1.2195e-04  3:04:36 29517
   484  5.6817e-02  8.9142e-05  5.2762e-03  2.3578e-03  2.1738e-04  1.2186e-04  3:04:48 29516
   485  5.6711e-02  8.9156e-05  5.2590e-03  2.3516e-03  2.1699e-04  1.2177e-04  3:04:36 29515
   486  5.6605e-02  8.9168e-05  5.2418e-03  2.3453e-03  2.1661e-04  1.2168e-04  3:04:16 29514
   487  5.6497e-02  8.9179e-05  5.2245e-03  2.3391e-03  2.1623e-04  1.2159e-04  3:04:26 29513
   488  5.6389e-02  8.9189e-05  5.2071e-03  2.3327e-03  2.1586e-04  1.2150e-04  3:04:34 29512
   489  5.6279e-02  8.9197e-05  5.1897e-03  2.3264e-03  2.1550e-04  1.2142e-04  3:05:10 29511
   490  5.6169e-02  8.9203e-05  5.1723e-03  2.3201e-03  2.1514e-04  1.2133e-04  3:04:44 29510
   491  5.6058e-02  8.9207e-05  5.1548e-03  2.3137e-03  2.1480e-04  1.2123e-04  3:04:22 29509

  iter  continuity  x-velocity  y-velocity      energy           k       omega     time/iter
   492  5.5946e-02  8.9210e-05  5.1372e-03  2.3073e-03  2.1446e-04  1.2114e-04  3:04:28 29508
   493  5.5833e-02  8.9212e-05  5.1196e-03  2.3009e-03  2.1413e-04  1.2105e-04  3:04:13 29507
   494  5.5720e-02  8.9212e-05  5.1020e-03  2.2945e-03  2.1381e-04  1.2096e-04  3:03:57 29506
   495  5.5605e-02  8.9211e-05  5.0843e-03  2.2880e-03  2.1350e-04  1.2086e-04  3:03:46 29505
   496  5.5490e-02  8.9209e-05  5.0666e-03  2.2815e-03  2.1320e-04  1.2077e-04  3:03:34 29504
   497  5.5374e-02  8.9206e-05  5.0488e-03  2.2750e-03  2.1291e-04  1.2067e-04  3:04:32 29503
   498  5.5257e-02  8.9201e-05  5.0310e-03  2.2685e-03  2.1263e-04  1.2057e-04  3:04:30 29502
   499  5.5140e-02  8.9196e-05  5.0132e-03  2.2620e-03  2.1236e-04  1.2047e-04  3:04:14 29501

>> Dividing domain into 40 partitions using Metis.
   Time = 0.0411329 seconds.
   Done.

>> 40 Stored Partitions:
   ----------------------------------------------------------------------
   Collective Partition Statistics:        Minimum   Maximum   Total     
   ----------------------------------------------------------------------
   Cell count                              14578     14674     584873    
   Mean cell count deviation               -0.3%     0.4%      
   Partition boundary cell count           92        603       16963     
   Partition boundary cell count ratio     0.6%      4.1%      2.9%      

   Face count                              29488     30228     1178546   
   Mean face count deviation               -0.8%     1.7%      
   Partition boundary face count           110       754       10592     
   Partition boundary face count ratio     0.4%      2.6%      0.9%      

   Cell weights                            1e+05     1e+05     6e+06     
   Mean cell weight deviation              -14.5%    1.7%      

   Partition neighbor count                1         7         
   ----------------------------------------------------------------------
   Partition Method                        Metis                                
   Stored Partition Count                  40                                   
Done.

Adapting mesh...
done.
   500  1.3555e-01  3.7890e-02  5.0304e-02  1.4695e-02  2.1214e-04  1.0205e-01  4:19:13 29500
   501  8.5509e-02  1.0068e-02  1.4356e-02  5.5016e-03  2.1187e-04  4.1268e-02  4:04:29 29499
   502  6.7394e-02  2.7909e-03  6.2698e-03  3.0816e-03  2.1162e-04  1.4502e-02  3:52:24 29498

  iter  continuity  x-velocity  y-velocity      energy           k       omega     time/iter
   503  6.1110e-02  8.5456e-04  5.1025e-03  2.5271e-03  2.1138e-04  4.2938e-03  3:43:10 29497
   504  5.8560e-02  3.5852e-04  4.9571e-03  2.3761e-03  2.1114e-04  1.1716e-03  3:35:23 29496
   505  5.7252e-02  2.3304e-04  4.9176e-03  2.3144e-03  2.1091e-04  2.9567e-04  3:29:38 29495
   506  5.6456e-02  1.8635e-04  4.8917e-03  2.2802e-03  2.1070e-04  6.5051e-05  3:25:46 29494
   507  5.5917e-02  1.5838e-04  4.8679e-03  2.2574e-03  2.1049e-04  8.0999e-05  3:21:55 29493
   508  5.5525e-02  1.3859e-04  4.8447e-03  2.2404e-03  2.1028e-04  9.5511e-05  3:18:25 29492
   509  5.5220e-02  1.2422e-04  4.8220e-03  2.2268e-03  2.1009e-04  1.0027e-04  3:17:16 29491
   510  5.4968e-02  1.1388e-04  4.7998e-03  2.2153e-03  2.0990e-04  1.0228e-04  3:14:39 29490
   511  5.4749e-02  1.0654e-04  4.7783e-03  2.2049e-03  2.0972e-04  1.0346e-04  3:13:06 29489
   512  5.4549e-02  1.0138e-04  4.7574e-03  2.1954e-03  2.0954e-04  1.0433e-04  3:11:27 29488
   513  5.4361e-02  9.7769e-05  4.7371e-03  2.1864e-03  2.0938e-04  1.0502e-04  3:10:31 29487

  iter  continuity  x-velocity  y-velocity      energy           k       omega     time/iter
   514  5.4182e-02  9.5239e-05  4.7172e-03  2.1777e-03  2.0921e-04  1.0559e-04  3:09:51 29486
   515  5.4008e-02  9.3459e-05  4.6977e-03  2.1694e-03  2.0906e-04  1.0606e-04  3:08:41 29485
   516  5.3838e-02  9.2193e-05  4.6786e-03  2.1612e-03  2.0891e-04  1.0646e-04  3:07:52 29484
   517  5.3671e-02  9.1281e-05  4.6597e-03  2.1532e-03  2.0876e-04  1.0678e-04  3:07:14 29483
   518  5.3508e-02  9.0613e-05  4.6410e-03  2.1453e-03  2.0862e-04  1.0705e-04  3:06:36 29482
   519  5.3348e-02  9.0115e-05  4.6224e-03  2.1375e-03  2.0849e-04  1.0726e-04  3:06:16 29481
   520  5.3190e-02  8.9737e-05  4.6039e-03  2.1299e-03  2.0836e-04  1.0743e-04  3:05:52 29480
   521  5.3035e-02  8.9443e-05  4.5855e-03  2.1223e-03  2.0824e-04  1.0756e-04  3:05:39 29479
   522  5.2882e-02  8.9211e-05  4.5672e-03  2.1148e-03  2.0812e-04  1.0766e-04  3:05:43 29478
   523  5.2732e-02  8.9023e-05  4.5489e-03  2.1074e-03  2.0801e-04  1.0774e-04  3:05:21 29477
   524  5.2583e-02  8.8869e-05  4.5307e-03  2.1000e-03  2.0791e-04  1.0779e-04  3:05:08 29476

  iter  continuity  x-velocity  y-velocity      energy           k       omega     time/iter
   525  5.2436e-02  8.8739e-05  4.5125e-03  2.0927e-03  2.0781e-04  1.0783e-04  3:05:00 29475
   526  5.2290e-02  8.8628e-05  4.4943e-03  2.0854e-03  2.0772e-04  1.0786e-04  3:04:58 29474
   527  5.2146e-02  8.8532e-05  4.4761e-03  2.0782e-03  2.0764e-04  1.0788e-04  3:05:02 29473
   528  5.2004e-02  8.8447e-05  4.4580e-03  2.0710e-03  2.0757e-04  1.0790e-04  3:04:48 29472
   529  5.1862e-02  8.8370e-05  4.4398e-03  2.0638e-03  2.0751e-04  1.0792e-04  3:04:40 29471
   530  5.1722e-02  8.8301e-05  4.4217e-03  2.0566e-03  2.0745e-04  1.0794e-04  3:05:37 29470
   531  5.1582e-02  8.8238e-05  4.4036e-03  2.0495e-03  2.0739e-04  1.0797e-04  3:05:50 29469
   532  5.1444e-02  8.8179e-05  4.3855e-03  2.0424e-03  2.0734e-04  1.0800e-04  3:05:59 29468
   533  5.1306e-02  8.8123e-05  4.3674e-03  2.0353e-03  2.0729e-04  1.0803e-04  3:05:57 29467
   534  5.1169e-02  8.8071e-05  4.3493e-03  2.0282e-03  2.0725e-04  1.0807e-04  3:06:00 29466
   535  5.1033e-02  8.8023e-05  4.3312e-03  2.0212e-03  2.0721e-04  1.0812e-04  3:06:14 29465

  iter  continuity  x-velocity  y-velocity      energy           k       omega     time/iter
   536  5.0897e-02  8.7976e-05  4.3131e-03  2.0141e-03  2.0718e-04  1.0817e-04  3:07:17 29464
   537  5.0762e-02  8.7932e-05  4.2951e-03  2.0071e-03  2.0716e-04  1.0823e-04  3:06:42 29463
   538  5.0628e-02  8.7888e-05  4.2770e-03  2.0000e-03  2.0714e-04  1.0830e-04  3:06:32 29462
   539  5.0493e-02  8.7847e-05  4.2590e-03  1.9930e-03  2.0713e-04  1.0837e-04  3:06:00 29461
   540  5.0360e-02  8.7807e-05  4.2409e-03  1.9860e-03  2.0713e-04  1.0846e-04  3:05:38 29460
   541  5.0226e-02  8.7768e-05  4.2229e-03  1.9790e-03  2.0714e-04  1.0855e-04  3:05:36 29459
   542  5.0093e-02  8.7730e-05  4.2048e-03  1.9720e-03  2.0716e-04  1.0864e-04  3:05:17 29458
   543  4.9960e-02  8.7694e-05  4.1867e-03  1.9650e-03  2.0718e-04  1.0875e-04  3:05:30 29457
   544  4.9828e-02  8.7658e-05  4.1687e-03  1.9580e-03  2.0721e-04  1.0887e-04  3:05:31 29456
   545  4.9695e-02  8.7623e-05  4.1506e-03  1.9510e-03  2.0724e-04  1.0901e-04  3:05:43 29455
   546  4.9563e-02  8.7590e-05  4.1326e-03  1.9440e-03  2.0729e-04  1.0914e-04  3:06:07 29454

  iter  continuity  x-velocity  y-velocity      energy           k       omega     time/iter
   547  4.9431e-02  8.7556e-05  4.1145e-03  1.9370e-03  2.0734e-04  1.0929e-04  3:05:51 29453
   548  4.9299e-02  8.7524e-05  4.0964e-03  1.9300e-03  2.0740e-04  1.0944e-04  3:05:52 29452
   549  4.9167e-02  8.7492e-05  4.0783e-03  1.9230e-03  2.0747e-04  1.0960e-04  3:06:22 29451
   550  4.9034e-02  8.7460e-05  4.0602e-03  1.9160e-03  2.0754e-04  1.0976e-04  3:06:17 29450
[...]
 29833  6.6212e-04  1.1428e-05  5.5167e-06  1.4976e-05  3.2520e-07  6.5515e-06  0:00:57  167
 29834  6.6210e-04  1.1428e-05  5.5165e-06  1.4976e-05  3.2520e-07  6.5515e-06  0:00:57  166
 29835  6.6209e-04  1.1428e-05  5.5163e-06  1.4975e-05  3.2520e-07  6.5515e-06  0:00:57  165
 29836  6.6207e-04  1.1427e-05  5.5161e-06  1.4975e-05  3.2520e-07  6.5515e-06  0:00:56  164
 29837  6.6206e-04  1.1427e-05  5.5159e-06  1.4974e-05  3.2520e-07  6.5515e-06  0:00:56  163
 29838  6.6204e-04  1.1427e-05  5.5157e-06  1.4974e-05  3.2520e-07  6.5515e-06  0:00:56  162
 29839  6.6203e-04  1.1426e-05  5.5155e-06  1.4973e-05  3.2520e-07  6.5515e-06  0:00:55  161

  iter  continuity  x-velocity  y-velocity      energy           k       omega     time/iter
 29840  6.6201e-04  1.1426e-05  5.5153e-06  1.4973e-05  3.2520e-07  6.5515e-06  0:00:55  160
 29841  6.6200e-04  1.1425e-05  5.5151e-06  1.4972e-05  3.2520e-07  6.5515e-06  0:00:55  159
 29842  6.6199e-04  1.1425e-05  5.5149e-06  1.4972e-05  3.2521e-07  6.5515e-06  0:00:54  158
 29843  6.6197e-04  1.1425e-05  5.5147e-06  1.4971e-05  3.2521e-07  6.5515e-06  0:00:54  157
 29844  6.6196e-04  1.1424e-05  5.5145e-06  1.4971e-05  3.2521e-07  6.5515e-06  0:00:54  156
 29845  6.6194e-04  1.1424e-05  5.5143e-06  1.4970e-05  3.2521e-07  6.5515e-06  0:00:53  155
 29846  6.6193e-04  1.1423e-05  5.5141e-06  1.4970e-05  3.2521e-07  6.5515e-06  0:00:53  154
 29847  6.6191e-04  1.1423e-05  5.5139e-06  1.4969e-05  3.2521e-07  6.5515e-06  0:00:53  153
 29848  6.6190e-04  1.1423e-05  5.5137e-06  1.4969e-05  3.2521e-07  6.5515e-06  0:00:53  152
 29849  6.6188e-04  1.1422e-05  5.5135e-06  1.4968e-05  3.2521e-07  6.5515e-06  0:00:52  151
 29850  6.6187e-04  1.1422e-05  5.5133e-06  1.4968e-05  3.2521e-07  6.5515e-06  0:00:52  150

  iter  continuity  x-velocity  y-velocity      energy           k       omega     time/iter
 29851  6.6185e-04  1.1421e-05  5.5131e-06  1.4967e-05  3.2522e-07  6.5515e-06  0:00:51  149
 29852  6.6184e-04  1.1421e-05  5.5129e-06  1.4967e-05  3.2522e-07  6.5515e-06  0:00:51  148
 29853  6.6182e-04  1.1421e-05  5.5127e-06  1.4966e-05  3.2522e-07  6.5515e-06  0:00:51  147
 29854  6.6181e-04  1.1420e-05  5.5125e-06  1.4966e-05  3.2522e-07  6.5515e-06  0:00:50  146
 29855  6.6180e-04  1.1420e-05  5.5124e-06  1.4965e-05  3.2522e-07  6.5515e-06  0:00:50  145
 29856  6.6178e-04  1.1420e-05  5.5122e-06  1.4965e-05  3.2522e-07  6.5515e-06  0:00:49  144
 29857  6.6177e-04  1.1419e-05  5.5120e-06  1.4964e-05  3.2522e-07  6.5515e-06  0:00:49  143
 29858  6.6175e-04  1.1419e-05  5.5118e-06  1.4964e-05  3.2522e-07  6.5515e-06  0:00:49  142
 29859  6.6174e-04  1.1418e-05  5.5116e-06  1.4963e-05  3.2523e-07  6.5515e-06  0:00:48  141
 29860  6.6172e-04  1.1418e-05  5.5114e-06  1.4963e-05  3.2523e-07  6.5515e-06  0:00:48  140
 29861  6.6171e-04  1.1418e-05  5.5112e-06  1.4962e-05  3.2523e-07  6.5515e-06  0:00:48  139

  iter  continuity  x-velocity  y-velocity      energy           k       omega     time/iter
 29862  6.6169e-04  1.1417e-05  5.5110e-06  1.4962e-05  3.2523e-07  6.5515e-06  0:00:48  138
 29863  6.6168e-04  1.1417e-05  5.5108e-06  1.4961e-05  3.2523e-07  6.5515e-06  0:00:47  137
 29864  6.6166e-04  1.1416e-05  5.5106e-06  1.4961e-05  3.2523e-07  6.5515e-06  0:00:47  136
 29865  6.6165e-04  1.1416e-05  5.5104e-06  1.4960e-05  3.2523e-07  6.5515e-06  0:00:47  135
 29866  6.6163e-04  1.1416e-05  5.5102e-06  1.4960e-05  3.2523e-07  6.5515e-06  0:00:46  134
 29867  6.6162e-04  1.1415e-05  5.5100e-06  1.4959e-05  3.2523e-07  6.5515e-06  0:00:46  133
 29868  6.6160e-04  1.1415e-05  5.5098e-06  1.4959e-05  3.2524e-07  6.5515e-06  0:00:45  132
 29869  6.6159e-04  1.1414e-05  5.5096e-06  1.4958e-05  3.2524e-07  6.5515e-06  0:00:45  131
 29870  6.6158e-04  1.1414e-05  5.5094e-06  1.4958e-05  3.2524e-07  6.5515e-06  0:00:45  130
 29871  6.6156e-04  1.1414e-05  5.5092e-06  1.4957e-05  3.2524e-07  6.5515e-06  0:00:44  129
 29872  6.6155e-04  1.1413e-05  5.5090e-06  1.4957e-05  3.2524e-07  6.5515e-06  0:00:44  128

  iter  continuity  x-velocity  y-velocity      energy           k       omega     time/iter
 29873  6.6153e-04  1.1413e-05  5.5088e-06  1.4956e-05  3.2524e-07  6.5515e-06  0:00:44  127
 29874  6.6152e-04  1.1412e-05  5.5086e-06  1.4956e-05  3.2524e-07  6.5515e-06  0:00:43  126
 29875  6.6150e-04  1.1412e-05  5.5084e-06  1.4955e-05  3.2524e-07  6.5515e-06  0:00:43  125
 29876  6.6149e-04  1.1412e-05  5.5082e-06  1.4955e-05  3.2525e-07  6.5515e-06  0:00:42  124
 29877  6.6147e-04  1.1411e-05  5.5081e-06  1.4954e-05  3.2525e-07  6.5515e-06  0:00:42  123
 29878  6.6146e-04  1.1411e-05  5.5079e-06  1.4954e-05  3.2525e-07  6.5515e-06  0:00:42  122
 29879  6.6144e-04  1.1411e-05  5.5077e-06  1.4953e-05  3.2525e-07  6.5515e-06  0:00:42  121
 29880  6.6143e-04  1.1410e-05  5.5075e-06  1.4953e-05  3.2525e-07  6.5515e-06  0:00:41  120
 29881  6.6141e-04  1.1410e-05  5.5073e-06  1.4953e-05  3.2525e-07  6.5515e-06  0:00:41  119
 29882  6.6140e-04  1.1409e-05  5.5071e-06  1.4952e-05  3.2525e-07  6.5515e-06  0:00:41  118
 29883  6.6138e-04  1.1409e-05  5.5069e-06  1.4952e-05  3.2525e-07  6.5515e-06  0:00:40  117

  iter  continuity  x-velocity  y-velocity      energy           k       omega     time/iter
 29884  6.6137e-04  1.1409e-05  5.5067e-06  1.4951e-05  3.2526e-07  6.5515e-06  0:00:40  116
 29885  6.6136e-04  1.1408e-05  5.5065e-06  1.4951e-05  3.2526e-07  6.5515e-06  0:00:40  115
 29886  6.6134e-04  1.1408e-05  5.5063e-06  1.4950e-05  3.2526e-07  6.5516e-06  0:00:39  114
 29887  6.6133e-04  1.1407e-05  5.5061e-06  1.4950e-05  3.2526e-07  6.5516e-06  0:00:39  113
 29888  6.6131e-04  1.1407e-05  5.5059e-06  1.4949e-05  3.2526e-07  6.5516e-06  0:00:39  112
 29889  6.6130e-04  1.1407e-05  5.5057e-06  1.4949e-05  3.2526e-07  6.5516e-06  0:00:38  111
 29890  6.6128e-04  1.1406e-05  5.5055e-06  1.4948e-05  3.2526e-07  6.5516e-06  0:00:38  110
 29891  6.6127e-04  1.1406e-05  5.5053e-06  1.4948e-05  3.2526e-07  6.5516e-06  0:00:38  109
 29892  6.6125e-04  1.1405e-05  5.5051e-06  1.4947e-05  3.2527e-07  6.5516e-06  0:00:37  108
 29893  6.6124e-04  1.1405e-05  5.5049e-06  1.4947e-05  3.2527e-07  6.5516e-06  0:00:37  107
 29894  6.6122e-04  1.1405e-05  5.5047e-06  1.4946e-05  3.2527e-07  6.5516e-06  0:00:36  106

  iter  continuity  x-velocity  y-velocity      energy           k       omega     time/iter
 29895  6.6121e-04  1.1404e-05  5.5045e-06  1.4946e-05  3.2527e-07  6.5516e-06  0:00:36  105
 29896  6.6119e-04  1.1404e-05  5.5043e-06  1.4945e-05  3.2527e-07  6.5516e-06  0:00:36  104
 29897  6.6118e-04  1.1403e-05  5.5041e-06  1.4945e-05  3.2527e-07  6.5516e-06  0:00:35  103
 29898  6.6117e-04  1.1403e-05  5.5040e-06  1.4944e-05  3.2527e-07  6.5516e-06  0:00:35  102
 29899  6.6115e-04  1.1403e-05  5.5038e-06  1.4944e-05  3.2527e-07  6.5516e-06  0:00:35  101
 29900  6.6114e-04  1.1402e-05  5.5036e-06  1.4943e-05  3.2528e-07  6.5516e-06  0:00:34  100
 29901  6.6112e-04  1.1402e-05  5.5034e-06  1.4943e-05  3.2528e-07  6.5516e-06  0:00:34   99
 29902  6.6111e-04  1.1402e-05  5.5032e-06  1.4942e-05  3.2528e-07  6.5516e-06  0:00:33   98
 29903  6.6109e-04  1.1401e-05  5.5030e-06  1.4942e-05  3.2528e-07  6.5516e-06  0:00:33   97
 29904  6.6108e-04  1.1401e-05  5.5028e-06  1.4941e-05  3.2528e-07  6.5516e-06  0:00:33   96
 29905  6.6106e-04  1.1400e-05  5.5026e-06  1.4941e-05  3.2528e-07  6.5516e-06  0:00:33   95

  iter  continuity  x-velocity  y-velocity      energy           k       omega     time/iter
 29906  6.6105e-04  1.1400e-05  5.5024e-06  1.4940e-05  3.2528e-07  6.5516e-06  0:00:33   94
 29907  6.6103e-04  1.1400e-05  5.5022e-06  1.4940e-05  3.2528e-07  6.5516e-06  0:00:32   93
 29908  6.6102e-04  1.1399e-05  5.5020e-06  1.4939e-05  3.2529e-07  6.5516e-06  0:00:32   92
 29909  6.6100e-04  1.1399e-05  5.5018e-06  1.4939e-05  3.2529e-07  6.5516e-06  0:00:31   91
 29910  6.6099e-04  1.1398e-05  5.5016e-06  1.4938e-05  3.2529e-07  6.5516e-06  0:00:31   90
 29911  6.6097e-04  1.1398e-05  5.5014e-06  1.4938e-05  3.2529e-07  6.5516e-06  0:00:31   89
 29912  6.6096e-04  1.1398e-05  5.5012e-06  1.4937e-05  3.2529e-07  6.5516e-06  0:00:30   88
 29913  6.6095e-04  1.1397e-05  5.5010e-06  1.4937e-05  3.2529e-07  6.5516e-06  0:00:30   87
 29914  6.6093e-04  1.1397e-05  5.5008e-06  1.4936e-05  3.2529e-07  6.5516e-06  0:00:30   86
 29915  6.6092e-04  1.1396e-05  5.5006e-06  1.4936e-05  3.2529e-07  6.5516e-06  0:00:29   85
 29916  6.6090e-04  1.1396e-05  5.5004e-06  1.4935e-05  3.2530e-07  6.5516e-06  0:00:29   84

  iter  continuity  x-velocity  y-velocity      energy           k       omega     time/iter
 29917  6.6089e-04  1.1396e-05  5.5002e-06  1.4935e-05  3.2530e-07  6.5516e-06  0:00:29   83
 29918  6.6087e-04  1.1395e-05  5.5001e-06  1.4934e-05  3.2530e-07  6.5516e-06  0:00:28   82
 29919  6.6086e-04  1.1395e-05  5.4999e-06  1.4934e-05  3.2530e-07  6.5516e-06  0:00:28   81
 29920  6.6084e-04  1.1395e-05  5.4997e-06  1.4933e-05  3.2530e-07  6.5516e-06  0:00:27   80
 29921  6.6083e-04  1.1394e-05  5.4995e-06  1.4933e-05  3.2530e-07  6.5516e-06  0:00:27   79
 29922  6.6081e-04  1.1394e-05  5.4993e-06  1.4932e-05  3.2530e-07  6.5516e-06  0:00:27   78
 29923  6.6080e-04  1.1393e-05  5.4991e-06  1.4932e-05  3.2530e-07  6.5516e-06  0:00:26   77
 29924  6.6078e-04  1.1393e-05  5.4989e-06  1.4931e-05  3.2531e-07  6.5516e-06  0:00:26   76
 29925  6.6077e-04  1.1393e-05  5.4987e-06  1.4931e-05  3.2531e-07  6.5516e-06  0:00:26   75
 29926  6.6076e-04  1.1392e-05  5.4985e-06  1.4930e-05  3.2531e-07  6.5516e-06  0:00:25   74
 29927  6.6074e-04  1.1392e-05  5.4983e-06  1.4930e-05  3.2531e-07  6.5516e-06  0:00:25   73

  iter  continuity  x-velocity  y-velocity      energy           k       omega     time/iter
 29928  6.6073e-04  1.1391e-05  5.4981e-06  1.4929e-05  3.2531e-07  6.5516e-06  0:00:25   72
 29929  6.6071e-04  1.1391e-05  5.4979e-06  1.4929e-05  3.2531e-07  6.5516e-06  0:00:24   71
 29930  6.6070e-04  1.1391e-05  5.4977e-06  1.4928e-05  3.2531e-07  6.5516e-06  0:00:24   70
 29931  6.6068e-04  1.1390e-05  5.4975e-06  1.4928e-05  3.2531e-07  6.5516e-06  0:00:24   69
 29932  6.6067e-04  1.1390e-05  5.4973e-06  1.4928e-05  3.2532e-07  6.5516e-06  0:00:23   68
 29933  6.6065e-04  1.1389e-05  5.4971e-06  1.4927e-05  3.2532e-07  6.5516e-06  0:00:23   67
 29934  6.6064e-04  1.1389e-05  5.4969e-06  1.4927e-05  3.2532e-07  6.5516e-06  0:00:23   66
 29935  6.6062e-04  1.1389e-05  5.4967e-06  1.4926e-05  3.2532e-07  6.5516e-06  0:00:22   65
 29936  6.6061e-04  1.1388e-05  5.4965e-06  1.4926e-05  3.2532e-07  6.5516e-06  0:00:24   64
 29937  6.6059e-04  1.1388e-05  5.4964e-06  1.4925e-05  3.2532e-07  6.5516e-06  0:00:23   63
 29938  6.6058e-04  1.1388e-05  5.4962e-06  1.4925e-05  3.2532e-07  6.5516e-06  0:00:22   62

  iter  continuity  x-velocity  y-velocity      energy           k       omega     time/iter
 29939  6.6056e-04  1.1387e-05  5.4960e-06  1.4924e-05  3.2533e-07  6.5516e-06  0:00:22   61
 29940  6.6055e-04  1.1387e-05  5.4958e-06  1.4924e-05  3.2533e-07  6.5516e-06  0:00:21   60
 29941  6.6054e-04  1.1386e-05  5.4956e-06  1.4923e-05  3.2533e-07  6.5516e-06  0:00:21   59
 29942  6.6052e-04  1.1386e-05  5.4954e-06  1.4923e-05  3.2533e-07  6.5516e-06  0:00:20   58
 29943  6.6051e-04  1.1386e-05  5.4952e-06  1.4922e-05  3.2533e-07  6.5516e-06  0:00:20   57
 29944  6.6049e-04  1.1385e-05  5.4950e-06  1.4922e-05  3.2533e-07  6.5516e-06  0:00:23   56
 29945  6.6048e-04  1.1385e-05  5.4948e-06  1.4921e-05  3.2533e-07  6.5516e-06  0:00:22   55
 29946  6.6046e-04  1.1384e-05  5.4946e-06  1.4921e-05  3.2533e-07  6.5516e-06  0:00:21   54
 29947  6.6045e-04  1.1384e-05  5.4944e-06  1.4920e-05  3.2534e-07  6.5516e-06  0:00:20   53
 29948  6.6043e-04  1.1384e-05  5.4942e-06  1.4920e-05  3.2534e-07  6.5516e-06  0:00:19   52
 29949  6.6042e-04  1.1383e-05  5.4940e-06  1.4919e-05  3.2534e-07  6.5516e-06  0:00:19   51

  iter  continuity  x-velocity  y-velocity      energy           k       omega     time/iter
 29950  6.6040e-04  1.1383e-05  5.4938e-06  1.4919e-05  3.2534e-07  6.5516e-06  0:00:18   50
 29951  6.6039e-04  1.1382e-05  5.4936e-06  1.4918e-05  3.2534e-07  6.5516e-06  0:00:18   49
 29952  6.6037e-04  1.1382e-05  5.4934e-06  1.4918e-05  3.2534e-07  6.5517e-06  0:00:17   48
 29953  6.6036e-04  1.1382e-05  5.4932e-06  1.4917e-05  3.2534e-07  6.5517e-06  0:00:17   47
 29954  6.6035e-04  1.1381e-05  5.4930e-06  1.4917e-05  3.2535e-07  6.5517e-06  0:00:16   46
 29955  6.6033e-04  1.1381e-05  5.4928e-06  1.4916e-05  3.2535e-07  6.5517e-06  0:00:16   45
 29956  6.6032e-04  1.1381e-05  5.4927e-06  1.4916e-05  3.2535e-07  6.5517e-06  0:00:15   44
 29957  6.6030e-04  1.1380e-05  5.4925e-06  1.4915e-05  3.2535e-07  6.5517e-06  0:00:16   43
 29958  6.6029e-04  1.1380e-05  5.4923e-06  1.4915e-05  3.2535e-07  6.5517e-06  0:00:16   42
 29959  6.6027e-04  1.1379e-05  5.4921e-06  1.4914e-05  3.2535e-07  6.5517e-06  0:00:15   41
 29960  6.6026e-04  1.1379e-05  5.4919e-06  1.4914e-05  3.2535e-07  6.5517e-06  0:00:15   40

  iter  continuity  x-velocity  y-velocity      energy           k       omega     time/iter
 29961  6.6024e-04  1.1379e-05  5.4917e-06  1.4913e-05  3.2535e-07  6.5517e-06  0:00:14   39
 29962  6.6023e-04  1.1378e-05  5.4915e-06  1.4913e-05  3.2536e-07  6.5517e-06  0:00:14   38
 29963  6.6021e-04  1.1378e-05  5.4913e-06  1.4912e-05  3.2536e-07  6.5517e-06  0:00:13   37
 29964  6.6020e-04  1.1377e-05  5.4911e-06  1.4912e-05  3.2536e-07  6.5517e-06  0:00:13   36
 29965  6.6018e-04  1.1377e-05  5.4909e-06  1.4911e-05  3.2536e-07  6.5517e-06  0:00:12   35
 29966  6.6017e-04  1.1377e-05  5.4907e-06  1.4911e-05  3.2536e-07  6.5517e-06  0:00:12   34
 29967  6.6016e-04  1.1376e-05  5.4905e-06  1.4910e-05  3.2536e-07  6.5517e-06  0:00:11   33
 29968  6.6014e-04  1.1376e-05  5.4903e-06  1.4910e-05  3.2536e-07  6.5517e-06  0:00:11   32
 29969  6.6013e-04  1.1375e-05  5.4901e-06  1.4909e-05  3.2537e-07  6.5517e-06  0:00:11   31
 29970  6.6011e-04  1.1375e-05  5.4899e-06  1.4909e-05  3.2537e-07  6.5517e-06  0:00:10   30
 29971  6.6010e-04  1.1375e-05  5.4897e-06  1.4908e-05  3.2537e-07  6.5517e-06  0:00:10   29

  iter  continuity  x-velocity  y-velocity      energy           k       omega     time/iter
 29972  6.6008e-04  1.1374e-05  5.4895e-06  1.4908e-05  3.2537e-07  6.5517e-06  0:00:10   28
 29973  6.6007e-04  1.1374e-05  5.4893e-06  1.4907e-05  3.2537e-07  6.5517e-06  0:00:09   27
 29974  6.6005e-04  1.1373e-05  5.4892e-06  1.4907e-05  3.2537e-07  6.5517e-06  0:00:09   26
 29975  6.6004e-04  1.1373e-05  5.4890e-06  1.4906e-05  3.2537e-07  6.5517e-06  0:00:09   25
 29976  6.6002e-04  1.1373e-05  5.4888e-06  1.4906e-05  3.2537e-07  6.5517e-06  0:00:08   24
 29977  6.6001e-04  1.1372e-05  5.4886e-06  1.4905e-05  3.2538e-07  6.5517e-06  0:00:08   23
 29978  6.5999e-04  1.1372e-05  5.4884e-06  1.4905e-05  3.2538e-07  6.5517e-06  0:00:08   22
 29979  6.5998e-04  1.1372e-05  5.4882e-06  1.4905e-05  3.2538e-07  6.5517e-06  0:00:07   21
 29980  6.5996e-04  1.1371e-05  5.4880e-06  1.4904e-05  3.2538e-07  6.5517e-06  0:00:07   20
 29981  6.5995e-04  1.1371e-05  5.4878e-06  1.4904e-05  3.2538e-07  6.5517e-06  0:00:07   19
 29982  6.5994e-04  1.1370e-05  5.4876e-06  1.4903e-05  3.2538e-07  6.5517e-06  0:00:06   18

  iter  continuity  x-velocity  y-velocity      energy           k       omega     time/iter
 29983  6.5992e-04  1.1370e-05  5.4874e-06  1.4903e-05  3.2538e-07  6.5517e-06  0:00:06   17
 29984  6.5991e-04  1.1370e-05  5.4872e-06  1.4902e-05  3.2539e-07  6.5517e-06  0:00:06   16
 29985  6.5989e-04  1.1369e-05  5.4870e-06  1.4902e-05  3.2539e-07  6.5517e-06  0:00:05   15
 29986  6.5988e-04  1.1369e-05  5.4868e-06  1.4901e-05  3.2539e-07  6.5517e-06  0:00:05   14
 29987  6.5986e-04  1.1368e-05  5.4866e-06  1.4901e-05  3.2539e-07  6.5517e-06  0:00:04   13
 29988  6.5985e-04  1.1368e-05  5.4864e-06  1.4900e-05  3.2539e-07  6.5517e-06  0:00:04   12
 29989  6.5983e-04  1.1368e-05  5.4862e-06  1.4900e-05  3.2539e-07  6.5517e-06  0:00:04   11
 29990  6.5982e-04  1.1367e-05  5.4860e-06  1.4899e-05  3.2539e-07  6.5517e-06  0:00:03   10
 29991  6.5980e-04  1.1367e-05  5.4859e-06  1.4899e-05  3.2540e-07  6.5517e-06  0:00:03    9
 29992  6.5979e-04  1.1366e-05  5.4857e-06  1.4898e-05  3.2540e-07  6.5517e-06  0:00:03    8
 29993  6.5977e-04  1.1366e-05  5.4855e-06  1.4898e-05  3.2540e-07  6.5517e-06  0:00:02    7

  iter  continuity  x-velocity  y-velocity      energy           k       omega     time/iter
 29994  6.5976e-04  1.1366e-05  5.4853e-06  1.4897e-05  3.2540e-07  6.5517e-06  0:00:02    6
 29995  6.5975e-04  1.1365e-05  5.4851e-06  1.4897e-05  3.2540e-07  6.5517e-06  0:00:02    5
 29996  6.5973e-04  1.1365e-05  5.4849e-06  1.4896e-05  3.2540e-07  6.5517e-06  0:00:01    4
 29997  6.5972e-04  1.1365e-05  5.4847e-06  1.4896e-05  3.2540e-07  6.5517e-06  0:00:01    3
 29998  6.5970e-04  1.1364e-05  5.4845e-06  1.4895e-05  3.2541e-07  6.5517e-06  0:00:01    2
 29999  6.5969e-04  1.1364e-05  5.4843e-06  1.4895e-05  3.2541e-07  6.5517e-06  0:00:00    1

Adapting mesh...
done.
 30000  6.5968e-04  1.1363e-05  5.4841e-06  1.4895e-05  3.2541e-07  6.5517e-06  0:00:00    0
#t
;

(ti-menu-load-string (format #f "/plot plot yes M2.25_N2_Pres_5222_Pres_170_DBS_30000/axial_pressure yes no no total-pressure yes 1 0 axis ()"))
/plot plot yes M2.25_N2_Pres_5222_Pres_170_DBS_30000/axial_pressure yes no no total-pressure yes 1 0 axis ()#t


> (ti-menu-load-string (format #f "/plot plot yes M2.25_N2_Pres_5222_Pres_170_DBS_30000/axial_mach yes no no mach-number yes 1 0 axis ()"))
/plot plot yes M2.25_N2_Pres_5222_Pres_170_DBS_30000/axial_mach yes no no mach-number yes 1 0 axis ()#t


> (ti-menu-load-string (format #f "/plot plot yes M2.25_N2_Pres_5222_Pres_170_DBS_30000/axial_temperature yes no no temperature yes 1 0 axis ()"))
/plot plot yes M2.25_N2_Pres_5222_Pres_170_DBS_30000/axial_temperature yes no no temperature yes 1 0 axis ()#t


> (ti-menu-load-string (format #f "/plot plot yes M2.25_N2_Pres_5222_Pres_170_DBS_30000/axial_density yes no no density yes 1 0 axis ()"))
/plot plot yes M2.25_N2_Pres_5222_Pres_170_DBS_30000/axial_density yes no no density yes 1 0 axis ()#t


> 
adjoint/                mesh/                   report/
define/                 parallel/               server/
display/                plot/                   solve/
exit                    preferences/            surface/
file/                   print-license-usage     views/

> (ti-menu-load-string (format #f "/file/write-case M2.25_N2_Pres_5222_Pres_170_DBS_30000/CFD_Data.cas y"))
/file/write-case M2.25_N2_Pres_5222_Pres_170_DBS_30000/CFD_Data.cas Fast-loading "/apps/applications/ansys/2023R1/1/default/v231/fluent/fluent23.1.0/addons/afd/lib/hdfio.bin"
Done.

Writing to d13s9b1.arc4.leeds.ac.uk:"/nobackup/scldr/ACRE/M2.25_N2_Pres_5222_Pres_170_DBS_30000/CFD_Data.cas.h5" in NODE0 mode and compression level 1 ...
Grouping cells for Laplace smoothing ...
      601808 cells,     2 zones ...
     1220525 faces,    18 zones ...
      599820 nodes,     1 zone  ...
  Done.

  Writing automatic adaption criteria ...
  Done.
Done.
yinvalid command [y]
#t


> (ti-menu-load-string (format #f "/file/write-data M2.25_N2_Pres_5222_Pres_170_DBS_30000/CFD_Data.dat y"))
/file/write-data M2.25_N2_Pres_5222_Pres_170_DBS_30000/CFD_Data.dat 
Writing to d13s9b1.arc4.leeds.ac.uk:"/nobackup/scldr/ACRE/M2.25_N2_Pres_5222_Pres_170_DBS_30000/CFD_Data.dat.h5" in NODE0 mode and compression level 1 ...
  Writing results.
Done.
yinvalid command [y]
#t


> 
adjoint/                mesh/                   report/
define/                 parallel/               server/
display/                plot/                   solve/
exit                    preferences/            surface/
file/                   print-license-usage     views/

> exit 
Posting ANSYS Product Improvement Program performance data 
Done.
Auto-Transcript Stop Time:  12:24:21, 03 Nov 2023 
Total Transcript Time: 2 Hour 55 Minute 55 Second.

Automatic transcript closed.
