/apps/applications/ansys/2023R1/1/default/v231/fluent/fluent23.1.0/bin/fluent -r23.1.0 -t 40 2ddp -g -i /nobackup/scldr/ACRE/CFD_Macro.scm
/apps/applications/ansys/2023R1/1/default/v231/fluent/fluent23.1.0/cortex/lnamd64/cortex.23.1.0 -f fluent -g -i /nobackup/scldr/ACRE/CFD_Macro.scm (fluent "2ddp -pshmem  -host -r23.1.0 -t40 -mpi=intel -path/apps/applications/ansys/2023R1/1/default/v231/fluent -ssh")

Opening input/output transcript to file "/nobackup/scldr/ACRE/fluent-20231124-231812-47103.trn".
Auto-Transcript Start Time:  23:18:12, 24 Nov 2023 
/apps/applications/ansys/2023R1/1/default/v231/fluent/fluent23.1.0/bin/fluent -r23.1.0 2ddp -pshmem -host -t40 -mpi=intel -path/apps/applications/ansys/2023R1/1/default/v231/fluent -ssh -cx d13s9b2.arc4.leeds.ac.uk:46107:44262
Starting /apps/applications/ansys/2023R1/1/default/v231/fluent/fluent23.1.0/lnamd64/2ddp_host/fluent.23.1.0 host -cx d13s9b2.arc4.leeds.ac.uk:46107:44262 "(list (rpsetvar (QUOTE parallel/function) "fluent 2ddp -flux -node -r23.1.0 -t40 -pshmem -mpi=intel -ssh") (rpsetvar (QUOTE parallel/rhost) "") (rpsetvar (QUOTE parallel/ruser) "") (rpsetvar (QUOTE parallel/nprocs_string) "40") (rpsetvar (QUOTE parallel/auto-spawn?) #t) (rpsetvar (QUOTE parallel/trace-level) 0) (rpsetvar (QUOTE parallel/remote-shell) 1) (rpsetvar (QUOTE parallel/path) "/apps/applications/ansys/2023R1/1/default/v231/fluent") (rpsetvar (QUOTE parallel/hostsfile) "") (rpsetvar (QUOTE gpuapp/devices) ""))"

              Welcome to ANSYS Fluent 2023 R1

              Copyright 1987-2023 ANSYS, Inc. All Rights Reserved.
              Unauthorized use, distribution or duplication is prohibited.
              This product is subject to U.S. laws governing export and re-export.
              For full Legal Notice, see documentation.

Build Time: Nov 28 2022 09:30:44 EST  Build Id: 10208  
 
Connected License Server List:	1055@ansys-research.leeds.ac.uk

     --------------------------------------------------------------
     This is an academic version of ANSYS FLUENT. Usage of this product
     license is limited to the terms and conditions specified in your ANSYS
     license form, additional terms section.
     --------------------------------------------------------------
Host spawning Node 0 on machine "d13s9b2.arc4.leeds.ac.uk" (unix).
/apps/applications/ansys/2023R1/1/default/v231/fluent/fluent23.1.0/bin/fluent -r23.1.0 2ddp -flux -node -t40 -pshmem -mpi=intel -ssh -mport 10.12.170.19:10.12.170.19:40969:0
Starting /apps/applications/ansys/2023R1/1/default/v231/fluent/fluent23.1.0/multiport/mpi/lnamd64/intel2021/bin/mpirun --rsh=ssh -f /tmp/fluent-appfile.scldr.47489 -genv FI_PROVIDER tcp -genv FLUENT_ARCH lnamd64 -genv I_MPI_DEBUG 0 -genv I_MPI_ADJUST_REDUCE 2 -genv I_MPI_ADJUST_ALLREDUCE 2 -genv I_MPI_ADJUST_BCAST 8 -genv I_MPI_ADJUST_BARRIER 2 -genv I_MPI_ADJUST_ALLGATHER 2 -genv I_MPI_ADJUST_GATHER 2 -genv I_MPI_ADJUST_ALLTOALL 1 -genv I_MPI_ADJUST_SCATTER 2 -genv I_MPI_ADJUST_SCATTERV 2 -genv I_MPI_ADJUST_ALLGATHERV 2 -genv I_MPI_ADJUST_GATHERV 2 -genv I_MPI_PLATFORM auto -genv PYTHONHOME /apps/applications/ansys/2023R1/1/default/v231/fluent/fluent23.1.0/../../commonfiles/CPython/3_7/linx64/Release/python -genv FLUENT_PROD_DIR /apps/applications/ansys/2023R1/1/default/v231/fluent/fluent23.1.0 -genv FLUENT_AFFINITY 0 -genv I_MPI_PIN enable -genv KMP_AFFINITY disabled -n 40 /apps/applications/ansys/2023R1/1/default/v231/fluent/fluent23.1.0/lnamd64/2ddp_node/fluent_mpi.23.1.0 node -mpiw intel -pic shmem -mport 10.12.170.19:10.12.170.19:40969:0

--------------------------------------------------------------------------------
ID    Hostname              Core   O.S.      PID    Vendor                     
--------------------------------------------------------------------------------
n39   d13s9b2.arc4.leeds.a  40/40  Linux-64  47586  Intel(R) Xeon(R) Gold 6230 
n38   d13s9b2.arc4.leeds.a  39/40  Linux-64  47585  Intel(R) Xeon(R) Gold 6230 
n37   d13s9b2.arc4.leeds.a  38/40  Linux-64  47584  Intel(R) Xeon(R) Gold 6230 
n36   d13s9b2.arc4.leeds.a  37/40  Linux-64  47583  Intel(R) Xeon(R) Gold 6230 
n35   d13s9b2.arc4.leeds.a  36/40  Linux-64  47582  Intel(R) Xeon(R) Gold 6230 
n34   d13s9b2.arc4.leeds.a  35/40  Linux-64  47581  Intel(R) Xeon(R) Gold 6230 
n33   d13s9b2.arc4.leeds.a  34/40  Linux-64  47580  Intel(R) Xeon(R) Gold 6230 
n32   d13s9b2.arc4.leeds.a  33/40  Linux-64  47579  Intel(R) Xeon(R) Gold 6230 
n31   d13s9b2.arc4.leeds.a  32/40  Linux-64  47578  Intel(R) Xeon(R) Gold 6230 
n30   d13s9b2.arc4.leeds.a  31/40  Linux-64  47577  Intel(R) Xeon(R) Gold 6230 
n29   d13s9b2.arc4.leeds.a  30/40  Linux-64  47575  Intel(R) Xeon(R) Gold 6230 
n28   d13s9b2.arc4.leeds.a  29/40  Linux-64  47574  Intel(R) Xeon(R) Gold 6230 
n27   d13s9b2.arc4.leeds.a  28/40  Linux-64  47573  Intel(R) Xeon(R) Gold 6230 
n26   d13s9b2.arc4.leeds.a  27/40  Linux-64  47572  Intel(R) Xeon(R) Gold 6230 
n25   d13s9b2.arc4.leeds.a  26/40  Linux-64  47571  Intel(R) Xeon(R) Gold 6230 
n24   d13s9b2.arc4.leeds.a  25/40  Linux-64  47569  Intel(R) Xeon(R) Gold 6230 
n23   d13s9b2.arc4.leeds.a  24/40  Linux-64  47568  Intel(R) Xeon(R) Gold 6230 
n22   d13s9b2.arc4.leeds.a  23/40  Linux-64  47567  Intel(R) Xeon(R) Gold 6230 
n21   d13s9b2.arc4.leeds.a  22/40  Linux-64  47566  Intel(R) Xeon(R) Gold 6230 
n20   d13s9b2.arc4.leeds.a  21/40  Linux-64  47565  Intel(R) Xeon(R) Gold 6230 
--------------------------------------------------------------------------------
ID    Hostname              Core   O.S.      PID    Vendor                     
--------------------------------------------------------------------------------
n19   d13s9b2.arc4.leeds.a  20/40  Linux-64  47564  Intel(R) Xeon(R) Gold 6230 
n18   d13s9b2.arc4.leeds.a  19/40  Linux-64  47563  Intel(R) Xeon(R) Gold 6230 
n17   d13s9b2.arc4.leeds.a  18/40  Linux-64  47562  Intel(R) Xeon(R) Gold 6230 
n16   d13s9b2.arc4.leeds.a  17/40  Linux-64  47560  Intel(R) Xeon(R) Gold 6230 
n15   d13s9b2.arc4.leeds.a  16/40  Linux-64  47559  Intel(R) Xeon(R) Gold 6230 
n14   d13s9b2.arc4.leeds.a  15/40  Linux-64  47558  Intel(R) Xeon(R) Gold 6230 
n13   d13s9b2.arc4.leeds.a  14/40  Linux-64  47557  Intel(R) Xeon(R) Gold 6230 
n12   d13s9b2.arc4.leeds.a  13/40  Linux-64  47556  Intel(R) Xeon(R) Gold 6230 
n11   d13s9b2.arc4.leeds.a  12/40  Linux-64  47554  Intel(R) Xeon(R) Gold 6230 
n10   d13s9b2.arc4.leeds.a  11/40  Linux-64  47552  Intel(R) Xeon(R) Gold 6230 
n9    d13s9b2.arc4.leeds.a  10/40  Linux-64  47551  Intel(R) Xeon(R) Gold 6230 
n8    d13s9b2.arc4.leeds.a  9/40   Linux-64  47550  Intel(R) Xeon(R) Gold 6230 
n7    d13s9b2.arc4.leeds.a  8/40   Linux-64  47549  Intel(R) Xeon(R) Gold 6230 
n6    d13s9b2.arc4.leeds.a  7/40   Linux-64  47548  Intel(R) Xeon(R) Gold 6230 
n5    d13s9b2.arc4.leeds.a  6/40   Linux-64  47547  Intel(R) Xeon(R) Gold 6230 
n4    d13s9b2.arc4.leeds.a  5/40   Linux-64  47546  Intel(R) Xeon(R) Gold 6230 
n3    d13s9b2.arc4.leeds.a  4/40   Linux-64  47545  Intel(R) Xeon(R) Gold 6230 
n2    d13s9b2.arc4.leeds.a  3/40   Linux-64  47544  Intel(R) Xeon(R) Gold 6230 
n1    d13s9b2.arc4.leeds.a  2/40   Linux-64  47543  Intel(R) Xeon(R) Gold 6230 
n0*   d13s9b2.arc4.leeds.a  1/40   Linux-64  47542  Intel(R) Xeon(R) Gold 6230 
host  d13s9b2.arc4.leeds.a         Linux-64  47299  Intel(R) Xeon(R) Gold 6230 

MPI Option Selected: intel
Selected system interconnect: shared-memory
--------------------------------------------------------------------------------


Initializing SGE
Done.
Cleanup script file is /nobackup/scldr/ACRE/cleanup-fluent-d13s9b2.arc4.leeds.ac.uk-47299.sh

Posting ANSYS Product Improvement Program startup data
Done.

Reading journal file /nobackup/scldr/ACRE/CFD_Macro.scm...

> (ti-menu-load-string (format #f "file/read-case /nobackup/scldr/ACRE/M2.25_N2_Pres_5222_Pchm_170_finest/Mesh.msh ok"))
file/read-case /nobackup/scldr/ACRE/M2.25_N2_Pres_5222_Pchm_170_finest/Mesh.msh 
Reading "/nobackup/scldr/ACRE/M2.25_N2_Pres_5222_Pchm_170_finest/Mesh.msh"...

Buffering for file scan...

 2160075 nodes.
 2155910 quadrilateral cells, zone 14.
 4307656 2D interior faces, zone 15.
     288 2D wall faces, zone 16.
      46 2D pressure-inlet faces, zone 17.
     603 2D wall faces, zone 18.
     598 2D wall faces, zone 19.
    2578 2D wall faces, zone 20.
      51 2D pressure-outlet faces, zone 21.
     770 2D wall faces, zone 22.
    3394 2D axis faces, zone 23.

Building...
     mesh
	auto partitioning mesh by Metis (fast),
	distributing mesh
		parts........................................,
		faces........................................,
		nodes........................................,
		cells........................................,
        bandwidth reduction using Reverse Cuthill-McKee: 51115/248 = 206.109
     materials,
     interface,
     domains,
     zones,
	axis
	right_reactor_wall
	outlet
	top_reactor_wall
	left_reactor_wall
	nozzle_wall
	inlet
	reservoir_wall
	int_fluid
	fluid
     parallel,
Done.
Warning: The use of axis boundary conditions is not appropriate for
         a 2D/3D flow problem. Please consider changing the zone
         type to symmetry or wall, or the problem to axisymmetric.

Warning: The use of axis boundary conditions is not appropriate for
         a 2D/3D flow problem. Please consider changing the zone
         type to symmetry or wall, or the problem to axisymmetric.

okinvalid command [ok]
#t


> (ti-menu-load-string (format #f "/mesh/scale 0.001 0.001"))
/mesh/scale 0.001 0.001#t


> (ti-menu-load-string (format #f "/define/models/axisymmetric yes"))
/define/models/axisymmetric yes#t


> (ti-menu-load-string (format #f "/define/models/solver/pressure-based yes"))
/define/models/solver/pressure-based yes#t
; density-based explicit, pressure-based or density-based-implicit
(ti-menu-load-string (format #f "/define/models/energy yes yes yes"))
/define/models/energy yes yes yes#t
  ; enable energy model?, compute viscout energy dissipation?, Including diffusion at inlets?
(ti-menu-load-string (format #f "/define/models/viscous/kw-sst yes"))
/define/models/viscous/kw-sst yes#t


> (ti-menu-load-string (format #f "(rpsetvar' sst-a1 0.31)"))
(rpsetvar' sst-a1 0.31)
sst-a1
#t
  ; 0.31
(ti-menu-load-string (format #f "(rpsetvar' sst-kappa 0.41)"))
(rpsetvar' sst-kappa 0.41)
sst-kappa
#t
; 0.41
(ti-menu-load-string (format #f "(rpsetvar' sst-beta-i2 0.0828)"))
(rpsetvar' sst-beta-i2 0.0828)
sst-beta-i2
#t
 ; 0.0828
(ti-menu-load-string (format #f "(rpsetvar' sst-beta-i1 0.075)"))
(rpsetvar' sst-beta-i1 0.075)
sst-beta-i1
#t
 ; 0.075
(ti-menu-load-string (format #f "(rpsetvar' sst-sig-w2 1.168)"))
(rpsetvar' sst-sig-w2 1.168)
sst-sig-w2
#t
 ; 1.168
(ti-menu-load-string (format #f "(rpsetvar' sst-sig-w1 2)"))
(rpsetvar' sst-sig-w1 2)
sst-sig-w1
#t
 ; 2
(ti-menu-load-string (format #f "(rpsetvar' sst-sig-k2 1)"))
(rpsetvar' sst-sig-k2 1)
sst-sig-k2
#t
 ; 1
(ti-menu-load-string (format #f "(rpsetvar' sst-sig-k1 1.176)"))
(rpsetvar' sst-sig-k1 1.176)
sst-sig-k1
#t
 ; 1.176
(ti-menu-load-string (format #f "/define/materials/copy fluid nitrogen"))
/define/materials/copy fluid nitrogen
nitrogen copied from database.

#t


> (ti-menu-load-string (format #f "/define/boundary-conditions/fluid fluid yes nitrogen no no no no no no no"))
/define/boundary-conditions/fluid (fluid)
fluid yes nitrogen no no no no no no no#t


> (ti-menu-load-string (format #f "/define/materials delete air"))
/define/materials delete air#t


> (ti-menu-load-string (format #f "/define/materials change-create nitrogen nitrogen yes ideal-gas no no yes sutherland three-coefficient-method 1.663e-05 273.11 106.67 no no no"))
/define/materials change-create nitrogen nitrogen nitrogen is a fluid
yes 
Density
ideal-gas no data required.

no no yes 
Viscosity
sutherland three-coefficient-method 1.663e-05 273.11 106.67 
no no no#t


> (ti-menu-load-string (format #f "/define/models/viscous/turb-compressibility no"))
/define/models/viscous/turb-compressibility no#t
 ; Turning compressbility effects off
(ti-menu-load-string (format #f "/define/boundary-conditions/zone-type inlet pressure-inlet"))
/define/boundary-conditions/zone-type inlet pressure-inlet#t


> (ti-menu-load-string (format #f "/define/boundary-conditions/zone-type outlet pressure-outlet"))
/define/boundary-conditions/zone-type outlet pressure-outlet#t


> (ti-menu-load-string (format #f "/define/boundary-conditions/wall left_reactor_wall 0 no 0 no no no 0 no no no no 0 no 0 no 1"))
/define/boundary-conditions/wall (reservoir_wall nozzle_wall left_reactor_wall top_reactor_wall right_reactor_wall)
left_reactor_wall 0 no 0 no no no 0 no no no no 0 no 0 no 1#t


> (ti-menu-load-string (format #f "/define/boundary-conditions/wall nozzle_wall 0 no 0 no no no 0 no no no no 0 no 0 no 1"))
/define/boundary-conditions/wall (reservoir_wall nozzle_wall left_reactor_wall top_reactor_wall right_reactor_wall)
nozzle_wall 0 no 0 no no no 0 no no no no 0 no 0 no 1#t


> (ti-menu-load-string (format #f "/define/boundary-conditions/wall reservoir_wall 0 no 0 no no no 0 no no no no 0 no 0 no 1"))
/define/boundary-conditions/wall (reservoir_wall nozzle_wall left_reactor_wall top_reactor_wall right_reactor_wall)
reservoir_wall 0 no 0 no no no 0 no no no no 0 no 0 no 1#t


> (ti-menu-load-string (format #f "/define/boundary-conditions/wall top_reactor_wall 0 no 0 no no no 0 no no no no 0 no 0 no 1"))
/define/boundary-conditions/wall (reservoir_wall nozzle_wall left_reactor_wall top_reactor_wall right_reactor_wall)
top_reactor_wall 0 no 0 no no no 0 no no no no 0 no 0 no 1#t


> (ti-menu-load-string (format #f "/define/boundary-conditions/wall right_reactor_wall 0 no 0 no no no 0 no no no no 0 no 0 no 1"))
/define/boundary-conditions/wall (reservoir_wall nozzle_wall left_reactor_wall top_reactor_wall right_reactor_wall)
right_reactor_wall 0 no 0 no no no 0 no no no no 0 no 0 no 1#t


> (ti-menu-load-string (format #f "/define/boundary-conditions/pressure-inlet inlet yes no 5222.73 no 0 no 300 no yes no no yes 1 1"))
/define/boundary-conditions/pressure-inlet (inlet)
inlet yes no 5222.73 no 0 no 300 no yes no no yes 1 1#t


> (ti-menu-load-string (format #f "/define/boundary-conditions/pressure-outlet outlet yes no 170.65 no 300 no yes no no yes 1 1 yes no no"))
/define/boundary-conditions/pressure-outlet (outlet)
outlet yes no 170.65 no 300 no yes no no yes 1 1 yes no no#t


> (ti-menu-load-string (format #f "/define/operating-conditions/operating-pressure 0"))
/define/operating-conditions/operating-pressure 0#t
 ; |Value in Pa|
(ti-menu-load-string (format #f "/solve/monitors/residual/convergence-criteria 1e-8 1e-8 1e-8 1e-8 1e-8 1e-8"))
/solve/monitors/residual/convergence-criteria 1e-8 1e-8 1e-8 1e-8 1e-8 1e-8#t


> (ti-menu-load-string (format #f "/solve/set/discretization-scheme/mom 1"))
/solve/set/discretization-scheme/mom 1#t
		; [0 1 4 6] = [First Order, Second Order, QUICK, Third Order]
(ti-menu-load-string (format #f "/solve/set/discretization-scheme/pressure 12"))
/solve/set/discretization-scheme/pressure 12#t
	; [12 10 14 11 13] = [Second, Standard, PRESTO!, Linear, Body Force Weighted]
(ti-menu-load-string (format #f "/solve/set/discretization-scheme/k 1"))
/solve/set/discretization-scheme/k 1#t
		; [0 1 4 6] = [First Order, Second Order, QUICK, Third Order]
(ti-menu-load-string (format #f "/solve/set/discretization-scheme/density 1"))
/solve/set/discretization-scheme/density 1#t
		; [0 1 4 6] = [First Order, Second Order, QUICK, Third Order]
(ti-menu-load-string (format #f "/solve/set/discretization-scheme/omega 1"))
/solve/set/discretization-scheme/omega 1#t
		; [0 1 4 6] = [First Order, Second Order, QUICK, Third Order]
(ti-menu-load-string (format #f "/solve/set/discretization-scheme/temperature 1"))
/solve/set/discretization-scheme/temperature 1#t
	; [0 1 4 6] = [First Order, Second Order, QUICK, Third Order]
(ti-menu-load-string (format #f "/solve/set/flux-type no 0"))
/solve/set/flux-type no 0#t
 				; [0 1], Rhie-Chow Distance, Rhie-Chow momentum
(ti-menu-load-string (format #f "/solve/set/p-v-coupling 24"))
/solve/set/p-v-coupling 24#t
				; [20 21 22 24] = [SIMPLE, SIMPLEC, PISO, Coupled]
(ti-menu-load-string (format #f "/solve/set/warped-face-gradient-correction enable? yes no"))
/solve/set/warped-face-gradient-correction enable? yes  
 Warped-Face Gradient Correction enabled. 
 Options:
 Fast mode 
 Memory saving mode 
no
 Memory saving mode will be used.#t
 ;

;This is just to help convergence, i have left relaxation parameters as default and it seems to converge fine.
(ti-menu-load-string (format #f "/solve/set/high-order-term-relaxation enable? yes"))
/solve/set/high-order-term-relaxation enable? yes#t
; 
; This sets pseudo transient using automating conservative timestepping with a timestep factor of 0.5. This acts as under-relaxation.
(ti-menu-load-string (format #f "/solve/set/pseudo-transient yes yes 1 0.5 0"))
/solve/set/pseudo-transient yes yes 1 0.5 0#t
 ;

; setup report definitions
(ti-menu-load-string (format #f "/solve/report-definitions add max-mach surface-vertexmax field mach-number surface-names axis"))
/solve/report-definitions add max-mach surface-vertexmax field mach-number surface-names axis#t
;
(ti-menu-load-string (format #f "/solve/report-files/add max-mach report-defs max-mach"))
/solve/report-files/add max-mach report-defs max-mach#t
;

(ti-menu-load-string (format #f "/solve/report-definitions add min-temp surface-vertexmin field temperature surface-names axis"))
/solve/report-definitions add min-temp surface-vertexmin field temperature surface-names axis#t
;
(ti-menu-load-string (format #f "/solve/report-files/add min-temp report-defs min-temp"))
/solve/report-files/add min-temp report-defs min-temp#t
;

(ti-menu-load-string (format #f "/solve/report-files/edit max-mach file-name M2.25_N2_Pres_5222_Pchm_170_finest/max-mach-convergence.txt"))
/solve/report-files/edit max-mach file-name M2.25_N2_Pres_5222_Pchm_170_finest/max-mach-convergence.txt#t


> (ti-menu-load-string (format #f "/solve/report-files/edit min-temp file-name M2.25_N2_Pres_5222_Pchm_170_finest/min-temp-convergence.txt"))
/solve/report-files/edit min-temp file-name M2.25_N2_Pres_5222_Pchm_170_finest/min-temp-convergence.txt#t


> 
adjoint/                mesh/                   report/
define/                 parallel/               server/
display/                plot/                   solve/
exit                    preferences/            surface/
file/                   print-license-usage     views/

> 
adjoint/                mesh/                   report/
define/                 parallel/               server/
display/                plot/                   solve/
exit                    preferences/            surface/
file/                   print-license-usage     views/

> ; Initialisation settings and number of itterations
(ti-menu-load-string (format #f "/solve/init/hyb-initialization"))
/solve/init/hyb-initialization
Initialize using the hybrid initialization method.

Checking case topology... 
-This case has both inlets & outlets 
-Pressure information is available at the boundaries

	iter		scalar-0		scalar-1

	1		1.000000e+00	1.000000e+00
	2		4.648627e-07	7.069842e-06
	3		7.204411e-08	9.933866e-07
	4		4.233504e-08	1.646026e-07
	5		3.230279e-08	8.713951e-08
	6		2.655443e-08	4.000252e-08
	7		2.238467e-08	2.111349e-08
	8		1.909454e-08	1.509443e-08
	9		1.642093e-08	1.294842e-08
	10		1.420278e-08	1.152282e-08

Hybrid initialization is done.
#t


> (ti-menu-load-string (format #f "solve init fmg y"))
solve init fmg y
Creating multigrid levels... 
 Grid Level  0: 2155910 cells, 4315984 faces, 2160075 nodes;  40 clusters
 Grid Level  1: 541700 cells, 2168556 faces, 2160075 nodes;  40 clusters
 Grid Level  1: 541700 cells, 1196316 faces,      0 nodes
 Grid Level  2: 156045 cells, 1203673 faces, 2160075 nodes;  40 clusters
 Grid Level  2: 156045 cells, 388585 faces,      0 nodes
 Grid Level  3:  47613 cells, 711564 faces, 2160075 nodes;  40 clusters
 Grid Level  3:  47613 cells, 131134 faces,      0 nodes
 Grid Level  4:  15492 cells, 447117 faces, 2160075 nodes;  40 clusters
 Grid Level  4:  15492 cells,  47889 faces,      0 nodes
 Grid Level  5:   5290 cells, 293597 faces, 2160075 nodes;  40 clusters
 Grid Level  5:   5290 cells,  19145 faces,      0 nodes
Done.


FMG: Converge FAS on level 5


FMG: Converge FAS on level 4


FMG: Converge FAS on level 3


FMG: Converge FAS on level 2


FMG: Converge FAS on level 1
0.->1.->2.->3.->4.->5.<<<<<

FMG: Initialize flow for Segregated solution.. . end 
#t


> 
adjoint/                mesh/                   report/
define/                 parallel/               server/
display/                plot/                   solve/
exit                    preferences/            surface/
file/                   print-license-usage     views/

> (ti-menu-load-string (format #f "/mesh/adapt/cell-registers/add yplusrefine type yplus-ystar max-allowed 0.5 min-allowed 0.25 q () q () q ()"))
/mesh/adapt/cell-registers/add yplusrefine type yplus-ystar max-allowed 0.5 min-allowed 0.25 q ()
 q ()
()
 q ()
()
#t


> (ti-menu-load-string (format #f "/mesh/adapt/manage-criteria/add criteria1 type expression refinement-expression \"yplusrefine\" "))
/mesh/adapt/manage-criteria/add criteria1 type expression refinement-expression "yplusrefine" #t


> (ti-menu-load-string (format #f "/mesh/adapt/manage-criteria/edit criteria1 frequency 250"))
/mesh/adapt/manage-criteria/edit criteria1 frequency 250#t


> 
adjoint/                mesh/                   report/
define/                 parallel/               server/
display/                plot/                   solve/
exit                    preferences/            surface/
file/                   print-license-usage     views/

> ;(ti-menu-load-string (format #f "/mesh/adapt/adapt-mesh"))
;(ti-menu-load-string (format #f "/solve/iterate 50"))
;(ti-menu-load-string (format #f "/mesh/adapt/adapt-mesh"))
;(ti-menu-load-string (format #f "/solve/iterate 50"))
;(ti-menu-load-string (format #f "/mesh/adapt/adapt-mesh"))
;(ti-menu-load-string (format #f "/solve/iterate 50"))
;(ti-menu-load-string (format #f "/mesh/adapt/adapt-mesh"))
;(ti-menu-load-string (format #f "/solve/iterate 50"))
;(ti-menu-load-string (format #f "/mesh/adapt/adapt-mesh"))
;(ti-menu-load-string (format #f "/solve/iterate 50"))
;(ti-menu-load-string (format #f "/mesh/adapt/adapt-mesh"))

adjoint/                mesh/                   report/
define/                 parallel/               server/
display/                plot/                   solve/
exit                    preferences/            surface/
file/                   print-license-usage     views/

> (ti-menu-load-string (format #f "/solve/iterate 1000"))
/solve/iterate 1000
  iter  continuity  x-velocity  y-velocity      energy           k       omega     time/iter

Adapting mesh...
done.
        Stabilizing pressure coupled to enhance linear solver robustness.
     1  1.0000e+00  1.4059e-04  2.3482e-05  4.6202e-04  8.3061e-01  6.9494e-01  1:02:24  999
     2  6.2873e-01  7.6824e-05  1.2820e-05  3.2260e-04  7.5639e-01  4.0786e-01  0:54:12  998
        Stabilizing pressure coupled to enhance linear solver robustness.
     3  4.0016e-01  4.3209e-05  8.4538e-06  2.1286e-04  5.5178e-01  3.3928e-01  0:48:59  997
        Stabilizing pressure coupled to enhance linear solver robustness.
     4  2.5561e-01  2.5575e-05  6.0631e-06  1.3738e-04  1.6778e-01  2.5129e-01  0:45:33  996
        Stabilizing pressure coupled to enhance linear solver robustness.
     5  1.8303e-01  1.5649e-05  4.3702e-06  9.0309e-05  2.0288e-02  1.6551e-01  0:42:42  995
        Stabilizing pressure coupled to enhance linear solver robustness.
     6  1.5320e-01  9.8544e-06  3.1993e-06  5.8954e-05  2.0915e-03  9.5508e-02  0:40:37  994
        Stabilizing pressure coupled to enhance linear solver robustness.
     7  1.4211e-01  6.3557e-06  2.4177e-06  3.9824e-05  3.7382e-04  5.0712e-02  0:39:52  993
        Stabilizing pressure coupled to enhance linear solver robustness.
     8  1.3346e-01  3.9966e-06  1.8012e-06  2.8161e-05  1.8054e-04  3.0626e-02  0:39:07  992
        Stabilizing pressure coupled to enhance linear solver robustness.
     9  1.2567e-01  2.5365e-06  1.3657e-06  1.9340e-05  1.2494e-04  3.9804e-02  0:39:35  991
        Stabilizing pressure coupled to enhance linear solver robustness.
    10  1.1786e-01  1.7598e-06  1.0640e-06  1.2657e-05  6.9251e-05  3.4114e-02  0:40:48  990
        Stabilizing pressure coupled to enhance linear solver robustness.
    11  1.1081e-01  1.3468e-06  8.5420e-07  8.7144e-06  5.4687e-05  3.0549e-02  0:41:41  989
        Stabilizing pressure coupled to enhance linear solver robustness.

  iter  continuity  x-velocity  y-velocity      energy           k       omega     time/iter
    12  1.0537e-01  1.1873e-06  7.1173e-07  5.8488e-06  4.6077e-05  2.4869e-02  0:43:05  988
        Stabilizing pressure coupled to enhance linear solver robustness.
        Negative k in 792 cells after linear solve.
    13  1.0248e-01  1.0798e-06  6.0685e-07  4.3783e-06  4.4157e-05  1.8308e-02  0:46:35  987
        Stabilizing pressure coupled to enhance linear solver robustness.
        Negative k in 2572 cells after linear solve.
    14  1.0029e-01  9.7446e-07  5.2160e-07  3.9024e-06  3.9794e-05  1.2816e-02  0:47:03  986
        Stabilizing pressure coupled to enhance linear solver robustness.
        Negative k in 5539 cells after linear solve.
    15  9.8445e-02  9.0060e-07  4.5436e-07  3.5357e-06  3.8005e-05  1.2416e-02  0:47:16  985
        Stabilizing pressure coupled to enhance linear solver robustness.
        Negative k in 7906 cells after linear solve.
    16  9.6575e-02  8.3482e-07  4.0002e-07  3.4274e-06  3.7441e-05  1.3179e-02  0:49:52  984
        Stabilizing pressure coupled to enhance linear solver robustness.
        Negative k in 4408 cells after linear solve.
    17  9.4693e-02  7.6680e-07  3.5335e-07  3.3853e-06  3.5291e-05  1.3847e-02  0:49:29  983
        Stabilizing pressure coupled to enhance linear solver robustness.
        Negative k in 9515 cells after linear solve.
    18  9.2954e-02  7.0815e-07  3.1378e-07  3.3297e-06  3.3296e-05  1.3793e-02  0:49:18  982
        Stabilizing pressure coupled to enhance linear solver robustness.
        Negative k in 16139 cells after linear solve.
    19  9.1735e-02  6.4817e-07  2.8340e-07  3.3317e-06  3.1311e-05  1.1984e-02  0:49:01  981
        Stabilizing pressure coupled to enhance linear solver robustness.
        Negative k in 25271 cells after linear solve.
        All neighbors negative on 1 cells.
    20  9.0203e-02  5.8706e-07  2.5467e-07  3.3334e-06  2.9504e-05  1.0383e-02  0:49:00  980
        Stabilizing pressure coupled to enhance linear solver robustness.
        Negative k in 21864 cells after linear solve.
        All neighbors negative on 1 cells.
    21  8.9008e-02  5.2558e-07  2.2942e-07  3.2962e-06  2.8372e-05  8.8034e-03  0:48:51  979
        Stabilizing pressure coupled to enhance linear solver robustness.
        Negative k in 18739 cells after linear solve.
        All neighbors negative on 1 cells.
    22  8.7809e-02  4.6498e-07  2.0666e-07  3.2181e-06  2.7758e-05  7.7395e-03  0:48:40  978
        Stabilizing pressure coupled to enhance linear solver robustness.
        Negative k in 15294 cells after linear solve.
        All neighbors negative on 1 cells.

  iter  continuity  x-velocity  y-velocity      energy           k       omega     time/iter
    23  8.6762e-02  4.0833e-07  1.8700e-07  3.1067e-06  2.6960e-05  7.2012e-03  0:48:32  977
        Stabilizing pressure coupled to enhance linear solver robustness.
        Negative k in 11165 cells after linear solve.
    24  8.5629e-02  3.5450e-07  1.6851e-07  3.0117e-06  2.5038e-05  7.3989e-03  0:50:10  976
        Stabilizing pressure coupled to enhance linear solver robustness.
        Negative k in 7022 cells after linear solve.
    25  8.4924e-02  3.1000e-07  1.5297e-07  2.9106e-06  2.2503e-05  7.5967e-03  0:55:09  975
        Stabilizing pressure coupled to enhance linear solver robustness.
        Negative k in 1128 cells after linear solve.
    26  8.4293e-02  2.6858e-07  1.4434e-07  2.7197e-06  1.9299e-05  7.2144e-03  1:03:15  974
        Stabilizing pressure coupled to enhance linear solver robustness.
    27  8.3547e-02  2.3125e-07  1.3285e-07  2.4571e-06  1.6529e-05  6.6181e-03  1:00:36  973
        Stabilizing pressure coupled to enhance linear solver robustness.
    28  8.2484e-02  1.9547e-07  1.1785e-07  2.2580e-06  1.3804e-05  6.3407e-03  1:02:25  972
        Stabilizing pressure coupled to enhance linear solver robustness.
    29  8.1791e-02  1.7240e-07  1.0627e-07  2.0527e-06  1.1349e-05  6.3375e-03  1:02:25  971
        Stabilizing pressure coupled to enhance linear solver robustness.
    30  8.0732e-02  1.4698e-07  9.2877e-08  1.9212e-06  9.4222e-06  5.6900e-03  1:03:31  970
        Stabilizing pressure coupled to enhance linear solver robustness.
    31  8.0037e-02  1.3154e-07  8.2771e-08  1.7303e-06  7.9977e-06  5.5740e-03  1:00:48  969
        Stabilizing pressure coupled to enhance linear solver robustness.
    32  7.8811e-02  1.1279e-07  7.1986e-08  1.6044e-06  6.7440e-06  5.1355e-03  1:02:29  968
        Stabilizing pressure coupled to enhance linear solver robustness.
    33  7.7909e-02  1.0647e-07  6.4366e-08  1.5200e-06  6.0522e-06  4.6841e-03  1:04:36  967
        Stabilizing pressure coupled to enhance linear solver robustness.

  iter  continuity  x-velocity  y-velocity      energy           k       omega     time/iter
    34  7.7442e-02  1.0375e-07  6.0412e-08  1.3879e-06  5.1105e-06  4.3310e-03  1:03:57  966
        Stabilizing pressure coupled to enhance linear solver robustness.
    35  7.6143e-02  9.2102e-08  5.2334e-08  1.2538e-06  4.6710e-06  3.8682e-03  1:08:22  965
        Stabilizing pressure coupled to enhance linear solver robustness.
    36  7.4963e-02  8.7993e-08  4.6991e-08  1.1252e-06  4.3021e-06  3.3103e-03  1:07:09  964
        Stabilizing pressure coupled to enhance linear solver robustness.
    37  7.3480e-02  8.1883e-08  4.2491e-08  1.0517e-06  4.0942e-06  2.9226e-03  1:10:49  963
        Stabilizing pressure coupled to enhance linear solver robustness.
    38  7.2327e-02  8.0861e-08  4.1590e-08  9.7656e-07  3.8570e-06  2.5036e-03  1:22:27  962
        Stabilizing pressure coupled to enhance linear solver robustness.
    39  7.1307e-02  7.5837e-08  3.8399e-08  8.6362e-07  3.6364e-06  2.3009e-03  1:18:47  961
        Stabilizing pressure coupled to enhance linear solver robustness.
    40  7.0000e-02  7.2366e-08  3.9711e-08  8.1154e-07  3.3885e-06  1.9979e-03  1:24:53  960
        Stabilizing pressure coupled to enhance linear solver robustness.
    41  6.8774e-02  7.1195e-08  3.5940e-08  7.4689e-07  3.2023e-06  1.7446e-03  1:23:15  959
        Stabilizing pressure coupled to enhance linear solver robustness.
    42  6.7657e-02  6.8403e-08  3.3927e-08  7.1088e-07  3.1034e-06  1.6191e-03  1:23:11  958
        Stabilizing pressure coupled to enhance linear solver robustness.
    43  6.6689e-02  6.7862e-08  3.2496e-08  2.1784e-06  2.0550e-05  1.5236e-03  1:19:18  957
        Stabilizing pressure coupled to enhance linear solver robustness.
    44  1.0772e-01  2.0045e-07  1.8339e-07  2.3600e-06  6.5029e-06  1.8757e-03  1:18:56  956
        Stabilizing pressure coupled to enhance linear solver robustness.

  iter  continuity  x-velocity  y-velocity      energy           k       omega     time/iter
    45  9.3536e-02  1.2415e-07  1.1610e-07  1.2395e-06  4.9374e-06  2.0286e-03  1:13:18  955
        Stabilizing pressure coupled to enhance linear solver robustness.
    46  8.8988e-02  1.1067e-07  1.6905e-07  1.2868e-06  3.9396e-06  2.0303e-03  1:18:28  954
        Stabilizing pressure coupled to enhance linear solver robustness.
    47  7.8094e-02  9.5482e-08  1.2615e-07  8.6463e-07  4.0008e-06  1.4178e-03  1:26:18  953
        Stabilizing pressure coupled to enhance linear solver robustness.
    48  7.2175e-02  9.0784e-08  1.0016e-07  7.1648e-07  4.0490e-06  1.3042e-03  1:32:50  952
        Stabilizing pressure coupled to enhance linear solver robustness.
    49  6.7871e-02  8.7752e-08  8.1304e-08  6.4624e-07  4.1356e-06  1.2525e-03  1:31:02  951
        Stabilizing pressure coupled to enhance linear solver robustness.
    50  6.5017e-02  8.8834e-08  7.0811e-08  5.8167e-07  3.6840e-06  1.2327e-03  1:22:29  950
        Stabilizing pressure coupled to enhance linear solver robustness.
    51  6.2095e-02  8.2463e-08  5.5731e-08  5.3212e-07  3.4731e-06  1.1531e-03  1:19:45  949
        Stabilizing pressure coupled to enhance linear solver robustness.
    52  6.0208e-02  8.0398e-08  4.8047e-08  5.5052e-07  3.7128e-06  1.1375e-03  1:18:34  948
        Stabilizing pressure coupled to enhance linear solver robustness.
    53  5.9139e-02  8.5802e-08  5.3195e-08  5.3114e-07  3.1391e-06  1.1029e-03  1:14:14  947
        Stabilizing pressure coupled to enhance linear solver robustness.
    54  5.7466e-02  7.6585e-08  3.9937e-08  4.7556e-07  2.8433e-06  9.9959e-04  1:19:53  946
        Stabilizing pressure coupled to enhance linear solver robustness.
    55  5.6231e-02  7.2057e-08  3.2295e-08  4.4967e-07  2.5512e-06  9.4863e-04  1:20:38  945
        Stabilizing pressure coupled to enhance linear solver robustness.

  iter  continuity  x-velocity  y-velocity      energy           k       omega     time/iter
    56  5.5161e-02  7.1026e-08  3.0670e-08  4.4207e-07  2.3461e-06  9.0708e-04  1:15:36  944
        Stabilizing pressure coupled to enhance linear solver robustness.
    57  5.3988e-02  6.9362e-08  2.9502e-08  4.1991e-07  2.2763e-06  9.4409e-04  1:15:19  943
        Stabilizing pressure coupled to enhance linear solver robustness.
    58  5.2960e-02  6.6900e-08  2.5514e-08  4.0267e-07  2.1274e-06  8.0592e-04  1:20:04  942
        Stabilizing pressure coupled to enhance linear solver robustness.
    59  5.2008e-02  6.4257e-08  2.2327e-08  3.6995e-07  1.8793e-06  7.7716e-04  1:18:01  941
        Stabilizing pressure coupled to enhance linear solver robustness.
    60  5.0993e-02  6.1576e-08  1.9479e-08  3.3687e-07  1.7309e-06  7.3524e-04  1:12:57  940
        Stabilizing pressure coupled to enhance linear solver robustness.
    61  5.0008e-02  5.9754e-08  1.8916e-08  3.1831e-07  1.6442e-06  6.5109e-04  1:15:03  939
        Stabilizing pressure coupled to enhance linear solver robustness.
    62  4.8956e-02  5.8670e-08  1.6528e-08  3.0214e-07  1.5845e-06  6.5646e-04  1:16:00  938
        Stabilizing pressure coupled to enhance linear solver robustness.
    63  4.8054e-02  5.7186e-08  1.6784e-08  2.8784e-07  1.5049e-06  6.2810e-04  1:21:34  937
        Stabilizing pressure coupled to enhance linear solver robustness.
    64  4.7147e-02  5.5019e-08  1.4508e-08  2.6773e-07  1.3966e-06  5.8212e-04  1:15:30  936
        Stabilizing pressure coupled to enhance linear solver robustness.
    65  4.6183e-02  5.3090e-08  1.3251e-08  2.5215e-07  1.3659e-06  5.4802e-04  1:12:35  935
        Stabilizing pressure coupled to enhance linear solver robustness.
    66  4.5190e-02  5.2161e-08  1.3104e-08  2.4179e-07  1.3305e-06  5.2730e-04  1:17:33  934
        Stabilizing pressure coupled to enhance linear solver robustness.

  iter  continuity  x-velocity  y-velocity      energy           k       omega     time/iter
    67  4.4258e-02  5.0400e-08  1.2021e-08  2.2634e-07  1.2352e-06  4.9084e-04  1:12:27  933
        Stabilizing pressure coupled to enhance linear solver robustness.
    68  4.3301e-02  4.8251e-08  1.1119e-08  2.1289e-07  1.2375e-06  4.5754e-04  1:11:27  932
        Stabilizing pressure coupled to enhance linear solver robustness.
    69  4.2299e-02  4.7520e-08  1.1461e-08  2.0427e-07  1.1960e-06  4.3745e-04  1:20:29  931
        Stabilizing pressure coupled to enhance linear solver robustness.
    70  4.1362e-02  4.5335e-08  1.0436e-08  1.8949e-07  1.1177e-06  4.0697e-04  1:13:04  930
        Stabilizing pressure coupled to enhance linear solver robustness.
    71  4.0405e-02  4.3302e-08  9.8306e-09  1.7848e-07  1.1126e-06  3.8025e-04  1:12:28  929
        Stabilizing pressure coupled to enhance linear solver robustness.
    72  3.9396e-02  4.2361e-08  9.7373e-09  1.6917e-07  1.0493e-06  3.6229e-04  1:11:46  928
        Stabilizing pressure coupled to enhance linear solver robustness.
    73  3.8478e-02  4.0245e-08  9.5050e-09  1.6076e-07  1.0278e-06  3.4137e-04  1:12:39  927
        Stabilizing pressure coupled to enhance linear solver robustness.
    74  3.7475e-02  3.9154e-08  9.1088e-09  1.5412e-07  1.0432e-06  3.2179e-04  1:09:47  926
        Stabilizing pressure coupled to enhance linear solver robustness.
    75  3.6574e-02  3.8249e-08  9.5580e-09  1.4923e-07  9.5671e-07  3.2818e-04  1:03:23  925
        Stabilizing pressure coupled to enhance linear solver robustness.
    76  3.5671e-02  3.6113e-08  8.8446e-09  1.3855e-07  9.7905e-07  2.9621e-04  1:05:54  924
        Stabilizing pressure coupled to enhance linear solver robustness.
    77  3.4705e-02  3.5482e-08  9.0096e-09  1.3335e-07  9.1409e-07  2.8796e-04  1:00:38  923
        Stabilizing pressure coupled to enhance linear solver robustness.

  iter  continuity  x-velocity  y-velocity      energy           k       omega     time/iter
    78  3.3833e-02  3.3587e-08  8.5095e-09  1.2543e-07  8.9868e-07  2.6795e-04  1:07:26  922
        Stabilizing pressure coupled to enhance linear solver robustness.
    79  3.2892e-02  3.2657e-08  8.2742e-09  1.1900e-07  8.5422e-07  2.5852e-04  1:01:51  921
        Stabilizing pressure coupled to enhance linear solver robustness.
    80  3.2021e-02  3.1286e-08  8.0153e-09  1.1378e-07  8.5570e-07  2.5127e-04  1:00:55  920
        Stabilizing pressure coupled to enhance linear solver robustness.
    81  3.1115e-02  3.0767e-08  8.5493e-09  1.1321e-07  8.6540e-07  2.4651e-04  1:04:22  919
        Stabilizing pressure coupled to enhance linear solver robustness.
    82  3.0273e-02  3.0037e-08  8.3724e-09  1.0665e-07  8.0443e-07  2.3454e-04  0:59:23  918
        Stabilizing pressure coupled to enhance linear solver robustness.
    83  2.9453e-02  2.8582e-08  7.7474e-09  1.0174e-07  8.1702e-07  2.2885e-04  1:06:31  917
        Stabilizing pressure coupled to enhance linear solver robustness.
    84  2.8567e-02  2.8189e-08  7.5735e-09  9.8350e-08  7.7360e-07  2.2278e-04  1:00:31  916
        Stabilizing pressure coupled to enhance linear solver robustness.
    85  2.7769e-02  2.6887e-08  7.2954e-09  9.7294e-08  8.4391e-07  2.1239e-04  1:04:36  915
        Stabilizing pressure coupled to enhance linear solver robustness.
    86  2.6935e-02  2.7778e-08  7.9467e-09  9.7186e-08  7.7543e-07  2.0822e-04  1:01:19  914
        Stabilizing pressure coupled to enhance linear solver robustness.
    87  2.6203e-02  2.5945e-08  7.3754e-09  8.9268e-08  7.2994e-07  2.0751e-04  0:57:33  913
        Stabilizing pressure coupled to enhance linear solver robustness.
    88  2.5376e-02  2.4936e-08  7.0429e-09  8.8673e-08  7.7041e-07  1.9337e-04  1:06:59  912
        Stabilizing pressure coupled to enhance linear solver robustness.

  iter  continuity  x-velocity  y-velocity      energy           k       omega     time/iter
    89  2.4541e-02  2.5077e-08  7.3366e-09  8.6294e-08  7.1644e-07  1.8903e-04  1:01:23  911
        Stabilizing pressure coupled to enhance linear solver robustness.
    90  2.3811e-02  2.3749e-08  6.7907e-09  8.0647e-08  6.8792e-07  1.8437e-04  0:58:01  910
        Stabilizing pressure coupled to enhance linear solver robustness.
    91  2.3023e-02  2.2969e-08  6.4295e-09  7.8736e-08  6.8337e-07  1.7786e-04  1:11:40  909
        Stabilizing pressure coupled to enhance linear solver robustness.
    92  2.2224e-02  2.2458e-08  6.1629e-09  7.5769e-08  6.6114e-07  1.6910e-04  1:07:11  908
        Stabilizing pressure coupled to enhance linear solver robustness.
    93  2.1498e-02  2.1730e-08  6.0567e-09  7.4988e-08  6.7561e-07  1.6566e-04  1:08:27  907
        Stabilizing pressure coupled to enhance linear solver robustness.
    94  2.0744e-02  2.1546e-08  6.0238e-09  7.3166e-08  6.4402e-07  1.6112e-04  1:01:46  906
        Stabilizing pressure coupled to enhance linear solver robustness.
    95  2.0047e-02  2.0735e-08  5.7424e-09  7.1714e-08  6.6625e-07  1.5720e-04  1:00:30  905
        Stabilizing pressure coupled to enhance linear solver robustness.
    96  1.9313e-02  2.0793e-08  6.3037e-09  7.2951e-08  6.6223e-07  1.5023e-04  1:06:02  904
        Stabilizing pressure coupled to enhance linear solver robustness.
    97  1.8626e-02  2.0139e-08  5.8004e-09  6.8967e-08  6.3014e-07  1.4791e-04  1:01:44  903
        Stabilizing pressure coupled to enhance linear solver robustness.
    98  1.7925e-02  1.9337e-08  5.3106e-09  6.5947e-08  6.1420e-07  1.4556e-04  0:58:13  902
        Stabilizing pressure coupled to enhance linear solver robustness.
    99  1.7197e-02  1.8977e-08  5.6653e-09  6.5495e-08  6.2224e-07  1.3361e-04  1:02:18  901
        Stabilizing pressure coupled to enhance linear solver robustness.

  iter  continuity  x-velocity  y-velocity      energy           k       omega     time/iter
   100  1.6464e-02  1.8668e-08  5.2316e-09  6.8743e-08  6.8839e-07  1.2405e-04  1:03:17  900
        Stabilizing pressure coupled to enhance linear solver robustness.
   101  1.5857e-02  1.9485e-08  6.0191e-09  7.0759e-08  6.3052e-07  1.2317e-04  1:00:15  899
        Stabilizing pressure coupled to enhance linear solver robustness.
   102  1.5227e-02  1.8119e-08  5.2405e-09  6.2492e-08  5.9871e-07  1.1935e-04  0:58:57  898
        Stabilizing pressure coupled to enhance linear solver robustness.
   103  1.4514e-02  1.7445e-08  4.7559e-09  6.1063e-08  6.0609e-07  1.0880e-04  1:01:12  897
        Stabilizing pressure coupled to enhance linear solver robustness.
   104  1.3810e-02  1.7299e-08  5.0523e-09  5.9071e-08  5.7773e-07  1.0111e-04  0:57:49  896
        Stabilizing pressure coupled to enhance linear solver robustness.
   105  1.3140e-02  1.6576e-08  4.5779e-09  5.6693e-08  5.6590e-07  9.5930e-05  1:04:15  895
        Stabilizing pressure coupled to enhance linear solver robustness.
   106  1.2460e-02  1.6326e-08  4.3470e-09  5.4142e-08  5.4677e-07  8.8198e-05  0:58:25  894
        Stabilizing pressure coupled to enhance linear solver robustness.
   107  1.1822e-02  1.5907e-08  4.2016e-09  5.2826e-08  5.5790e-07  8.4140e-05  0:59:44  893
        Stabilizing pressure coupled to enhance linear solver robustness.
   108  1.1171e-02  1.5994e-08  4.3144e-09  5.1758e-08  5.3615e-07  7.7460e-05  0:54:42  892
        Stabilizing pressure coupled to enhance linear solver robustness.
   109  1.0576e-02  1.5559e-08  4.0729e-09  5.0293e-08  5.4390e-07  7.6304e-05  0:57:01  891
        Stabilizing pressure coupled to enhance linear solver robustness.
   110  9.9604e-03  1.5732e-08  4.9686e-09  4.8936e-08  5.2369e-07  6.8738e-05  0:54:15  890
        Stabilizing pressure coupled to enhance linear solver robustness.

  iter  continuity  x-velocity  y-velocity      energy           k       omega     time/iter
   111  9.3736e-03  1.5413e-08  4.2440e-09  4.6898e-08  5.1293e-07  6.6374e-05  0:53:46  889
        Stabilizing pressure coupled to enhance linear solver robustness.
   112  8.7668e-03  1.5395e-08  4.0012e-09  4.6766e-08  5.3532e-07  5.9670e-05  0:57:17  888
        Stabilizing pressure coupled to enhance linear solver robustness.
   113  8.1711e-03  1.5707e-08  4.1369e-09  4.6234e-08  5.1344e-07  5.4836e-05  0:55:36  887
        Stabilizing pressure coupled to enhance linear solver robustness.
   114  7.6208e-03  1.5365e-08  3.7245e-09  4.3565e-08  5.0432e-07  5.2319e-05  0:53:06  886
        Stabilizing pressure coupled to enhance linear solver robustness.
   115  7.0707e-03  1.5724e-08  4.6605e-09  4.3258e-08  5.0427e-07  4.2896e-05  1:00:50  885
        Stabilizing pressure coupled to enhance linear solver robustness.
   116  6.4742e-03  1.5500e-08  3.9173e-09  4.2604e-08  5.1193e-07  3.9982e-05  1:02:57  884
        Stabilizing pressure coupled to enhance linear solver robustness.
   117  5.9523e-03  1.5556e-08  3.9126e-09  4.1935e-08  4.9093e-07  3.6943e-05  0:58:38  883
        Stabilizing pressure coupled to enhance linear solver robustness.
   118  5.4399e-03  1.5099e-08  3.5177e-09  4.0526e-08  4.9894e-07  3.2598e-05  1:04:40  882
        Stabilizing pressure coupled to enhance linear solver robustness.
   119  4.9338e-03  1.5134e-08  3.5977e-09  3.9542e-08  4.8286e-07  2.6647e-05  1:05:17  881
        Stabilizing pressure coupled to enhance linear solver robustness.
   120  4.4283e-03  1.4680e-08  3.3550e-09  3.7599e-08  4.6901e-07  2.2543e-05  1:05:19  880
        Stabilizing pressure coupled to enhance linear solver robustness.
   121  3.9260e-03  1.4420e-08  3.1593e-09  3.6903e-08  4.6987e-07  1.7627e-05  1:08:13  879
        Stabilizing pressure coupled to enhance linear solver robustness.

  iter  continuity  x-velocity  y-velocity      energy           k       omega     time/iter
   122  3.4345e-03  1.4290e-08  3.2324e-09  3.5594e-08  4.5611e-07  1.3079e-05  1:00:59  878
        Stabilizing pressure coupled to enhance linear solver robustness.
   123  2.9766e-03  1.3927e-08  3.1271e-09  3.4355e-08  4.4685e-07  1.1397e-05  0:54:43  877
        Stabilizing pressure coupled to enhance linear solver robustness.
   124  2.7391e-03  1.3657e-08  3.0777e-09  3.3484e-08  4.3953e-07  1.2353e-05  0:49:44  876
        Stabilizing pressure coupled to enhance linear solver robustness.
   125  2.6700e-03  1.3376e-08  3.0338e-09  3.2868e-08  4.3345e-07  1.4725e-05  0:45:43  875
        Stabilizing pressure coupled to enhance linear solver robustness.
   126  2.6743e-03  1.3068e-08  2.9894e-09  3.2319e-08  4.2753e-07  1.7496e-05  0:42:03  874
        Stabilizing pressure coupled to enhance linear solver robustness.
   127  2.7121e-03  1.2737e-08  2.9494e-09  3.1827e-08  4.2133e-07  2.0222e-05  0:39:05  873
        Stabilizing pressure coupled to enhance linear solver robustness.
   128  2.7698e-03  1.2385e-08  2.9279e-09  3.1397e-08  4.1490e-07  2.2876e-05  0:37:11  872
        Stabilizing pressure coupled to enhance linear solver robustness.
   129  2.8219e-03  1.2006e-08  2.9011e-09  3.1725e-08  4.1849e-07  2.6200e-05  0:46:55  871
        Stabilizing pressure coupled to enhance linear solver robustness.
   130  2.8719e-03  1.1652e-08  2.9332e-09  3.1557e-08  4.0241e-07  2.8480e-05  0:43:29  870
        Stabilizing pressure coupled to enhance linear solver robustness.
   131  2.9454e-03  1.1139e-08  2.8868e-09  3.0606e-08  3.9280e-07  3.0889e-05  0:40:42  869
        Stabilizing pressure coupled to enhance linear solver robustness.
   132  2.9822e-03  1.0736e-08  2.8582e-09  3.0135e-08  3.8508e-07  3.2745e-05  0:38:27  868
        Stabilizing pressure coupled to enhance linear solver robustness.

  iter  continuity  x-velocity  y-velocity      energy           k       omega     time/iter
   133  3.0144e-03  1.0342e-08  2.8378e-09  3.0717e-08  3.9534e-07  3.5267e-05  0:47:05  867
        Stabilizing pressure coupled to enhance linear solver robustness.
   134  3.0332e-03  1.0079e-08  2.9656e-09  3.1578e-08  3.9412e-07  3.8567e-05  0:52:38  866
        Stabilizing pressure coupled to enhance linear solver robustness.
   135  3.0575e-03  9.6744e-09  3.0170e-09  3.1071e-08  3.7177e-07  4.1219e-05  0:48:45  865
        Stabilizing pressure coupled to enhance linear solver robustness.
   136  3.0839e-03  9.1247e-09  2.8693e-09  3.0500e-08  3.7371e-07  4.3281e-05  0:52:04  864
        Stabilizing pressure coupled to enhance linear solver robustness.
   137  3.0855e-03  8.9986e-09  3.7483e-09  3.1320e-08  3.6480e-07  4.2498e-05  0:58:09  863
        Stabilizing pressure coupled to enhance linear solver robustness.
   138  3.0688e-03  8.4686e-09  3.2380e-09  2.9214e-08  3.5225e-07  4.2383e-05  0:56:55  862
        Stabilizing pressure coupled to enhance linear solver robustness.
   139  3.0764e-03  8.0981e-09  3.0352e-09  2.9206e-08  3.4633e-07  4.5107e-05  0:55:19  861
        Stabilizing pressure coupled to enhance linear solver robustness.
   140  3.0274e-03  7.8203e-09  2.9572e-09  2.9405e-08  3.4617e-07  4.4676e-05  1:01:08  860
        Stabilizing pressure coupled to enhance linear solver robustness.
   141  2.9906e-03  7.5367e-09  2.8042e-09  3.0032e-08  3.5317e-07  4.4091e-05  1:02:52  859
        Stabilizing pressure coupled to enhance linear solver robustness.
   142  3.0041e-03  7.4515e-09  3.0679e-09  2.9290e-08  3.2999e-07  4.6053e-05  0:57:44  858
        Stabilizing pressure coupled to enhance linear solver robustness.
   143  3.0000e-03  6.9431e-09  2.7246e-09  2.7254e-08  3.1642e-07  4.6191e-05  0:58:13  857
        Stabilizing pressure coupled to enhance linear solver robustness.

  iter  continuity  x-velocity  y-velocity      energy           k       omega     time/iter
   144  2.9712e-03  6.7185e-09  2.6765e-09  2.8590e-08  3.3385e-07  4.3823e-05  0:58:21  856
        Stabilizing pressure coupled to enhance linear solver robustness.
   145  2.9888e-03  7.0412e-09  3.0949e-09  2.8787e-08  3.1473e-07  4.2125e-05  1:02:55  855
        Stabilizing pressure coupled to enhance linear solver robustness.
   146  2.9768e-03  6.6322e-09  2.7309e-09  2.7154e-08  3.2457e-07  4.1554e-05  1:09:05  854
        Stabilizing pressure coupled to enhance linear solver robustness.
   147  2.9815e-03  7.0121e-09  2.9945e-09  2.8209e-08  3.0289e-07  4.0391e-05  1:09:47  853
        Stabilizing pressure coupled to enhance linear solver robustness.
   148  2.9371e-03  6.6878e-09  2.5771e-09  2.5869e-08  2.9253e-07  3.8334e-05  1:06:22  852
        Stabilizing pressure coupled to enhance linear solver robustness.
   149  2.9283e-03  6.8153e-09  3.3315e-09  2.5657e-08  2.7829e-07  3.7153e-05  1:06:51  851
        Stabilizing pressure coupled to enhance linear solver robustness.
   150  2.8708e-03  6.5473e-09  2.8546e-09  2.3967e-08  2.6955e-07  3.6087e-05  1:13:48  850
        Stabilizing pressure coupled to enhance linear solver robustness.
   151  2.8135e-03  6.4242e-09  2.5207e-09  2.4261e-08  2.7060e-07  3.4441e-05  1:19:50  849
        Stabilizing pressure coupled to enhance linear solver robustness.
   152  2.7674e-03  6.6479e-09  2.5063e-09  2.3435e-08  2.5335e-07  3.3181e-05  1:12:28  848
        Stabilizing pressure coupled to enhance linear solver robustness.
   153  2.7069e-03  6.4206e-09  2.3509e-09  2.1664e-08  2.4448e-07  3.1616e-05  1:10:28  847
        Stabilizing pressure coupled to enhance linear solver robustness.
   154  2.6184e-03  6.4010e-09  2.2558e-09  2.2371e-08  2.5413e-07  2.8437e-05  1:18:17  846
        Stabilizing pressure coupled to enhance linear solver robustness.

  iter  continuity  x-velocity  y-velocity      energy           k       omega     time/iter
   155  2.5407e-03  6.7677e-09  2.5974e-09  2.1507e-08  2.3282e-07  2.6439e-05  1:16:18  845
        Stabilizing pressure coupled to enhance linear solver robustness.
   156  2.4555e-03  6.4815e-09  2.3337e-09  2.0207e-08  2.2456e-07  2.5196e-05  1:15:46  844
        Stabilizing pressure coupled to enhance linear solver robustness.
   157  2.3546e-03  6.4404e-09  2.3014e-09  1.9719e-08  2.1552e-07  2.2459e-05  1:30:02  843
        Stabilizing pressure coupled to enhance linear solver robustness.
   158  2.2341e-03  6.3901e-09  2.1909e-09  1.8537e-08  2.0351e-07  2.0248e-05  1:20:14  842
        Stabilizing pressure coupled to enhance linear solver robustness.
   159  2.1277e-03  6.2862e-09  2.1035e-09  2.0043e-08  2.3494e-07  1.8360e-05  1:14:53  841
        Stabilizing pressure coupled to enhance linear solver robustness.
   160  2.1783e-03  7.8645e-09  5.4592e-09  2.2168e-08  2.0862e-07  1.6187e-05  1:13:00  840
        Stabilizing pressure coupled to enhance linear solver robustness.
   161  1.9675e-03  6.8387e-09  3.5912e-09  1.8905e-08  1.9580e-07  1.4617e-05  1:11:59  839
        Stabilizing pressure coupled to enhance linear solver robustness.
   162  1.8567e-03  6.4561e-09  2.7394e-09  1.8870e-08  1.8874e-07  1.2604e-05  1:15:04  838
        Stabilizing pressure coupled to enhance linear solver robustness.
   163  1.7218e-03  6.2913e-09  2.4091e-09  1.8035e-08  1.7808e-07  1.0930e-05  1:29:18  837
        Stabilizing pressure coupled to enhance linear solver robustness.
   164  1.5896e-03  6.1792e-09  2.3053e-09  1.6779e-08  1.6308e-07  9.3700e-06  1:26:51  836
        Stabilizing pressure coupled to enhance linear solver robustness.
   165  1.4451e-03  5.8520e-09  2.1336e-09  1.5288e-08  1.5315e-07  7.4906e-06  1:18:46  835
        Stabilizing pressure coupled to enhance linear solver robustness.

  iter  continuity  x-velocity  y-velocity      energy           k       omega     time/iter
   166  1.3054e-03  5.6652e-09  2.0072e-09  1.4681e-08  1.4588e-07  7.2788e-06  1:11:43  834
        Stabilizing pressure coupled to enhance linear solver robustness.
   167  1.2731e-03  5.5467e-09  2.1420e-09  1.4277e-08  1.4078e-07  8.2612e-06  1:06:00  833
        Stabilizing pressure coupled to enhance linear solver robustness.
   168  1.2702e-03  5.4095e-09  2.0726e-09  1.3818e-08  1.3225e-07  9.3644e-06  0:58:47  832
        Stabilizing pressure coupled to enhance linear solver robustness.
   169  1.2930e-03  5.2291e-09  1.8649e-09  1.3253e-08  1.2570e-07  1.0626e-05  0:53:00  831
        Stabilizing pressure coupled to enhance linear solver robustness.
   170  1.3265e-03  5.0842e-09  1.7728e-09  1.2836e-08  1.1989e-07  1.1949e-05  0:48:23  830
        Stabilizing pressure coupled to enhance linear solver robustness.
   171  1.3617e-03  4.9401e-09  1.7190e-09  1.2482e-08  1.1463e-07  1.3203e-05  0:44:10  829
        Stabilizing pressure coupled to enhance linear solver robustness.
   172  1.3928e-03  4.7939e-09  1.6766e-09  1.2188e-08  1.1015e-07  1.4149e-05  0:40:47  828
        Stabilizing pressure coupled to enhance linear solver robustness.
   173  1.4216e-03  4.6454e-09  1.6404e-09  1.1920e-08  1.0640e-07  1.5124e-05  0:38:05  827
        Stabilizing pressure coupled to enhance linear solver robustness.
   174  1.4469e-03  4.4953e-09  1.6093e-09  1.1673e-08  1.0297e-07  1.6079e-05  0:35:57  826
        Stabilizing pressure coupled to enhance linear solver robustness.
   175  1.4700e-03  4.3479e-09  1.5831e-09  1.1856e-08  1.0603e-07  1.7032e-05  0:44:41  825
        Stabilizing pressure coupled to enhance linear solver robustness.
   176  1.4862e-03  4.2500e-09  1.5998e-09  1.1733e-08  9.8760e-08  1.8027e-05  0:41:20  824
        Stabilizing pressure coupled to enhance linear solver robustness.

  iter  continuity  x-velocity  y-velocity      energy           k       omega     time/iter
   177  1.5028e-03  4.0489e-09  1.5506e-09  1.1229e-08  9.4393e-08  1.8885e-05  0:38:27  823
        Stabilizing pressure coupled to enhance linear solver robustness.
   178  1.5138e-03  3.9183e-09  1.5242e-09  1.1311e-08  9.7377e-08  1.9246e-05  0:46:24  822
        Stabilizing pressure coupled to enhance linear solver robustness.
   179  1.5080e-03  3.8461e-09  1.5518e-09  1.1187e-08  9.0406e-08  1.9623e-05  0:42:35  821
        Stabilizing pressure coupled to enhance linear solver robustness.
   180  1.5075e-03  3.6645e-09  1.5025e-09  1.1067e-08  9.1759e-08  2.0491e-05  0:51:59  820
        Stabilizing pressure coupled to enhance linear solver robustness.
   181  1.4910e-03  3.5898e-09  1.5186e-09  1.1456e-08  9.4187e-08  2.0612e-05  1:01:59  819
        Stabilizing pressure coupled to enhance linear solver robustness.
   182  1.4834e-03  3.5387e-09  1.5731e-09  1.1168e-08  8.6583e-08  2.1449e-05  0:56:15  818
        Stabilizing pressure coupled to enhance linear solver robustness.
   183  1.4665e-03  3.3244e-09  1.5001e-09  1.0605e-08  8.2157e-08  2.1270e-05  0:52:29  817
        Stabilizing pressure coupled to enhance linear solver robustness.
   184  1.4322e-03  3.2056e-09  1.4410e-09  1.0612e-08  8.3266e-08  2.0688e-05  0:51:35  816
        Stabilizing pressure coupled to enhance linear solver robustness.
   185  1.3955e-03  3.1755e-09  1.5819e-09  1.0867e-08  8.1555e-08  2.0303e-05  0:56:08  815
        Stabilizing pressure coupled to enhance linear solver robustness.
   186  1.3577e-03  3.0664e-09  1.4960e-09  1.0219e-08  7.5760e-08  2.0038e-05  0:51:50  814
        Stabilizing pressure coupled to enhance linear solver robustness.
   187  1.3197e-03  2.9317e-09  1.3933e-09  1.0175e-08  7.6781e-08  2.0388e-05  0:53:14  813
        Stabilizing pressure coupled to enhance linear solver robustness.

  iter  continuity  x-velocity  y-velocity      energy           k       omega     time/iter
   188  1.2741e-03  2.9226e-09  1.4482e-09  9.9767e-09  7.1214e-08  2.0062e-05  0:49:04  812
        Stabilizing pressure coupled to enhance linear solver robustness.
   189  1.2330e-03  2.7941e-09  1.3446e-09  9.9036e-09  7.2426e-08  1.9834e-05  0:51:56  811
        Stabilizing pressure coupled to enhance linear solver robustness.
   190  1.1873e-03  2.8109e-09  1.3825e-09  9.7284e-09  6.7254e-08  1.8795e-05  0:48:30  810
        Stabilizing pressure coupled to enhance linear solver robustness.
   191  1.1464e-03  2.6989e-09  1.2878e-09  9.9603e-09  7.2587e-08  1.9068e-05  0:51:16  809
        Stabilizing pressure coupled to enhance linear solver robustness.
   192  1.1143e-03  2.8502e-09  1.5581e-09  9.9429e-09  6.5484e-08  1.8272e-05  0:52:41  808
        Stabilizing pressure coupled to enhance linear solver robustness.
   193  1.0792e-03  2.6711e-09  1.3601e-09  9.3818e-09  6.3401e-08  1.8251e-05  0:54:53  807
        Stabilizing pressure coupled to enhance linear solver robustness.
   194  1.0713e-03  2.6401e-09  1.2802e-09  9.6032e-09  6.2931e-08  1.7048e-05  0:54:52  806
        Stabilizing pressure coupled to enhance linear solver robustness.
   195  1.0588e-03  2.7033e-09  1.4228e-09  9.6649e-09  6.4345e-08  1.5943e-05  1:00:56  805
        Stabilizing pressure coupled to enhance linear solver robustness.
   196  1.0498e-03  2.6880e-09  1.3194e-09  9.3560e-09  5.8959e-08  1.6097e-05  0:56:06  804
        Stabilizing pressure coupled to enhance linear solver robustness.
   197  1.0416e-03  2.5826e-09  1.1828e-09  1.0074e-08  7.4936e-08  1.5965e-05  1:00:54  803
        Stabilizing pressure coupled to enhance linear solver robustness.
   198  1.0568e-03  3.0924e-09  1.5558e-09  1.0391e-08  6.5379e-08  1.5422e-05  1:01:57  802
        Stabilizing pressure coupled to enhance linear solver robustness.

  iter  continuity  x-velocity  y-velocity      energy           k       omega     time/iter
   199  1.0308e-03  2.7683e-09  1.3205e-09  9.1869e-09  6.0366e-08  1.4619e-05  0:59:33  801
        Stabilizing pressure coupled to enhance linear solver robustness.
   200  1.0079e-03  2.6165e-09  1.1769e-09  1.1267e-08  8.8640e-08  1.3471e-05  1:02:32  800
        Stabilizing pressure coupled to enhance linear solver robustness.
   201  1.0665e-03  3.3534e-09  1.7635e-09  1.1828e-08  7.0971e-08  1.3193e-05  1:07:53  799
        Stabilizing pressure coupled to enhance linear solver robustness.
   202  1.0016e-03  2.9156e-09  1.4193e-09  9.5586e-09  6.4453e-08  1.2293e-05  1:06:21  798
        Stabilizing pressure coupled to enhance linear solver robustness.
   203  9.6335e-04  2.6721e-09  1.2193e-09  9.1950e-09  6.2497e-08  1.1353e-05  1:06:50  797
        Stabilizing pressure coupled to enhance linear solver robustness.
   204  9.2670e-04  2.5692e-09  1.1199e-09  9.2643e-09  6.6464e-08  1.0890e-05  1:10:44  796
        Stabilizing pressure coupled to enhance linear solver robustness.
   205  9.0753e-04  2.5953e-09  1.1988e-09  8.9915e-09  5.9780e-08  1.0381e-05  1:10:38  795
        Stabilizing pressure coupled to enhance linear solver robustness.
   206  8.6405e-04  2.4630e-09  1.0847e-09  8.5578e-09  5.9524e-08  9.8968e-06  1:06:12  794
        Stabilizing pressure coupled to enhance linear solver robustness.
   207  8.4203e-04  2.5138e-09  1.2899e-09  8.5345e-09  5.9047e-08  9.1936e-06  1:12:56  793
        Stabilizing pressure coupled to enhance linear solver robustness.
   208  7.9479e-04  2.4418e-09  1.1386e-09  8.0518e-09  5.6470e-08  8.7003e-06  1:04:29  792
        Stabilizing pressure coupled to enhance linear solver robustness.
   209  7.5759e-04  2.3456e-09  1.0299e-09  7.7777e-09  5.5466e-08  8.3146e-06  0:57:37  791
        Stabilizing pressure coupled to enhance linear solver robustness.

  iter  continuity  x-velocity  y-velocity      energy           k       omega     time/iter
   210  7.1899e-04  2.3004e-09  9.8952e-10  7.8007e-09  5.6166e-08  7.7281e-06  1:04:49  790
        Stabilizing pressure coupled to enhance linear solver robustness.
   211  6.8303e-04  2.2699e-09  9.7095e-10  7.6569e-09  5.5068e-08  7.4903e-06  0:57:54  789
        Stabilizing pressure coupled to enhance linear solver robustness.
   212  6.4364e-04  2.2063e-09  9.4812e-10  7.4870e-09  5.4439e-08  7.0497e-06  0:51:19  788
        Stabilizing pressure coupled to enhance linear solver robustness.
   213  6.0668e-04  2.1615e-09  9.2512e-10  7.4477e-09  5.4482e-08  6.7208e-06  0:59:44  787
        Stabilizing pressure coupled to enhance linear solver robustness.
   214  5.6906e-04  2.1259e-09  9.1557e-10  7.4418e-09  5.5078e-08  6.4268e-06  1:01:50  786
        Stabilizing pressure coupled to enhance linear solver robustness.
   215  5.3839e-04  2.1561e-09  9.6570e-10  7.4245e-09  5.3294e-08  6.1691e-06  0:54:32  785
        Stabilizing pressure coupled to enhance linear solver robustness.
   216  5.0457e-04  2.0627e-09  9.1372e-10  7.1893e-09  5.2495e-08  5.9896e-06  0:48:33  784
        Stabilizing pressure coupled to enhance linear solver robustness.
   217  4.7603e-04  1.9999e-09  8.8606e-10  7.2643e-09  5.3453e-08  5.8796e-06  0:55:35  783
        Stabilizing pressure coupled to enhance linear solver robustness.
   218  4.6998e-04  2.0445e-09  1.1527e-09  7.4203e-09  5.3817e-08  6.0116e-06  0:52:27  782
        Stabilizing pressure coupled to enhance linear solver robustness.
   219  4.6266e-04  2.0759e-09  1.5414e-09  7.4268e-09  5.2803e-08  6.1316e-06  0:55:26  781
        Stabilizing pressure coupled to enhance linear solver robustness.
   220  4.2629e-04  1.9301e-09  1.1783e-09  7.2780e-09  5.2486e-08  6.2705e-06  1:00:00  780
        Stabilizing pressure coupled to enhance linear solver robustness.

  iter  continuity  x-velocity  y-velocity      energy           k       omega     time/iter
   221  4.1727e-04  1.9002e-09  1.1494e-09  7.3328e-09  5.0655e-08  6.3862e-06  1:00:28  779
        Stabilizing pressure coupled to enhance linear solver robustness.
   222  3.9442e-04  1.8115e-09  9.8549e-10  7.1245e-09  5.0031e-08  6.4741e-06  1:03:52  778
        Stabilizing pressure coupled to enhance linear solver robustness.
   223  3.7499e-04  1.7700e-09  9.1079e-10  7.0518e-09  4.8994e-08  6.5735e-06  1:09:58  777
        Stabilizing pressure coupled to enhance linear solver robustness.
   224  3.6010e-04  1.7121e-09  9.0313e-10  7.0452e-09  4.7835e-08  6.6412e-06  1:12:17  776
        Stabilizing pressure coupled to enhance linear solver robustness.
   225  3.3739e-04  1.6646e-09  8.2549e-10  7.2180e-09  5.0714e-08  6.6655e-06  1:10:16  775
        Stabilizing pressure coupled to enhance linear solver robustness.
   226  3.7444e-04  1.9693e-09  1.8041e-09  7.5460e-09  4.7886e-08  6.7313e-06  1:07:12  774
        Stabilizing pressure coupled to enhance linear solver robustness.
   227  3.1874e-04  1.7101e-09  1.2388e-09  7.0381e-09  4.6229e-08  6.7366e-06  1:02:08  773
        Stabilizing pressure coupled to enhance linear solver robustness.
   228  3.0509e-04  1.5788e-09  9.3846e-10  7.1273e-09  4.7569e-08  6.7384e-06  0:57:12  772
        Stabilizing pressure coupled to enhance linear solver robustness.
   229  3.1273e-04  1.7300e-09  1.5965e-09  7.2798e-09  4.5042e-08  6.7506e-06  0:54:51  771
        Stabilizing pressure coupled to enhance linear solver robustness.
   230  2.7845e-04  1.5455e-09  1.0801e-09  6.8985e-09  4.3698e-08  6.6970e-06  0:58:43  770
        Stabilizing pressure coupled to enhance linear solver robustness.
   231  2.6003e-04  1.4961e-09  9.3472e-10  6.8602e-09  4.2635e-08  6.6588e-06  0:54:54  769
        Stabilizing pressure coupled to enhance linear solver robustness.

  iter  continuity  x-velocity  y-velocity      energy           k       omega     time/iter
   232  2.6061e-04  1.4893e-09  1.0711e-09  6.8268e-09  4.1990e-08  6.7081e-06  0:58:45  768
        Stabilizing pressure coupled to enhance linear solver robustness.
   233  2.3405e-04  1.4313e-09  8.5918e-10  6.8025e-09  4.1967e-08  6.6685e-06  1:01:45  767
        Stabilizing pressure coupled to enhance linear solver robustness.
   234  2.1557e-04  1.4512e-09  7.9037e-10  6.7498e-09  4.0012e-08  6.6374e-06  0:58:46  766
        Stabilizing pressure coupled to enhance linear solver robustness.
   235  1.9976e-04  1.4064e-09  7.6593e-10  6.7183e-09  3.8662e-08  6.5765e-06  0:52:57  765
        Stabilizing pressure coupled to enhance linear solver robustness.
   236  1.8079e-04  1.3588e-09  6.8748e-10  6.6772e-09  3.7425e-08  6.4546e-06  0:47:13  764
        Stabilizing pressure coupled to enhance linear solver robustness.
   237  1.6408e-04  1.3300e-09  6.4514e-10  6.6477e-09  3.6412e-08  6.3577e-06  0:43:37  763
        Stabilizing pressure coupled to enhance linear solver robustness.
   238  1.4790e-04  1.3054e-09  6.2694e-10  6.6316e-09  3.5341e-08  6.3114e-06  0:39:50  762
        Stabilizing pressure coupled to enhance linear solver robustness.
   239  1.3242e-04  1.2888e-09  6.0644e-10  6.6359e-09  3.4721e-08  6.2263e-06  0:44:05  761
        Stabilizing pressure coupled to enhance linear solver robustness.
   240  1.2749e-04  1.2889e-09  6.3552e-10  6.6229e-09  3.2810e-08  6.1647e-06  0:40:33  760
        Stabilizing pressure coupled to enhance linear solver robustness.
   241  1.0997e-04  1.2569e-09  5.9785e-10  6.5307e-09  3.1919e-08  6.0960e-06  0:37:41  759
        Stabilizing pressure coupled to enhance linear solver robustness.
   242  9.9763e-05  1.2368e-09  5.8028e-10  6.5207e-09  3.1189e-08  6.0054e-06  0:35:03  758
        Stabilizing pressure coupled to enhance linear solver robustness.

  iter  continuity  x-velocity  y-velocity      energy           k       omega     time/iter
   243  9.4453e-05  1.2186e-09  5.6912e-10  6.5142e-09  3.0410e-08  5.9206e-06  0:32:56  757
        Stabilizing pressure coupled to enhance linear solver robustness.
   244  9.2173e-05  1.2011e-09  5.6213e-10  6.5314e-09  2.9966e-08  5.8361e-06  0:41:51  756
        Stabilizing pressure coupled to enhance linear solver robustness.
   245  9.1387e-05  1.1889e-09  5.6307e-10  6.5381e-09  3.0561e-08  5.7917e-06  0:46:45  755
        Stabilizing pressure coupled to enhance linear solver robustness.
   246  9.4348e-05  1.1956e-09  5.8362e-10  6.5187e-09  2.8940e-08  5.8150e-06  0:43:27  754
        Stabilizing pressure coupled to enhance linear solver robustness.
   247  9.1551e-05  1.1535e-09  5.5289e-10  6.5017e-09  2.9634e-08  5.8928e-06  0:47:33  753
        Stabilizing pressure coupled to enhance linear solver robustness.
   248  9.4493e-05  1.1699e-09  5.8079e-10  6.4814e-09  2.8188e-08  5.9769e-06  0:43:35  752
        Stabilizing pressure coupled to enhance linear solver robustness.
   249  9.2645e-05  1.1282e-09  5.4474e-10  6.4427e-09  2.7396e-08  6.1060e-06  0:39:42  751

>> Dividing domain into 40 partitions using Metis.
   Time = 0.129414 seconds.
   Done.

>> 40 Stored Partitions:
   ----------------------------------------------------------------------
   Collective Partition Statistics:        Minimum   Maximum   Total     
   ----------------------------------------------------------------------
   Cell count                              55608     56645     2234759   
   Mean cell count deviation               -0.5%     1.4%      
   Partition boundary cell count           219       1038      32014     
   Partition boundary cell count ratio     0.4%      1.9%      1.4%      

   Face count                              111856    115091    4487142   
   Mean face count deviation               -0.7%     2.1%      
   Partition boundary face count           273       1360      20428     
   Partition boundary face count ratio     0.2%      1.2%      0.5%      

   Cell weights                            5e+05     6e+05     2e+07     
   Mean cell weight deviation              -11.2%    3.3%      

   Partition neighbor count                1         7         
   ----------------------------------------------------------------------
   Partition Method                        Metis                                
   Stored Partition Count                  40                                   
Done.

Adapting mesh...
done.
   250  1.5173e-03  2.4530e-08  5.0162e-09  3.9363e-08  5.8745e-08  1.4809e-01  0:42:58  750
   251  1.1630e-03  1.2820e-08  3.9073e-09  2.0453e-08  7.3266e-08  2.6449e-02  0:41:14  749
   252  8.2834e-04  7.7434e-09  3.0872e-09  1.5094e-08  6.4326e-08  6.3423e-03  0:39:25  748
   253  6.8258e-04  5.4012e-09  3.5872e-09  1.3539e-08  5.5769e-08  1.4883e-03  0:38:20  747

  iter  continuity  x-velocity  y-velocity      energy           k       omega     time/iter
   254  5.8701e-04  3.6111e-09  2.8746e-09  1.1632e-08  4.4443e-08  5.2136e-04  0:37:27  746
   255  5.3154e-04  2.6524e-09  2.2862e-09  1.0496e-08  4.2384e-08  2.4443e-04  0:37:10  745
   256  4.8699e-04  2.0838e-09  1.6648e-09  9.7424e-09  4.2205e-08  1.3773e-04  0:36:34  744
   257  4.3426e-04  1.8032e-09  1.2285e-09  9.2277e-09  3.9546e-08  1.1954e-04  0:36:03  743
   258  3.8031e-04  1.6114e-09  1.0165e-09  8.8571e-09  3.6851e-08  1.2364e-04  0:35:41  742
   259  3.3837e-04  1.4879e-09  9.2491e-10  8.6507e-09  3.4884e-08  1.2089e-04  0:35:20  741
   260  3.0713e-04  1.4013e-09  8.8333e-10  8.4102e-09  3.2670e-08  1.1445e-04  0:35:03  740
   261  2.8244e-04  1.3103e-09  8.0419e-10  8.1922e-09  3.0565e-08  1.0961e-04  0:34:45  739
   262  2.5943e-04  1.2495e-09  7.6958e-10  8.0460e-09  2.8961e-08  1.0395e-04  0:34:31  738
   263  2.4155e-04  1.2098e-09  7.6752e-10  7.9527e-09  2.7784e-08  1.0194e-04  0:34:19  737
   264  2.2917e-04  1.1849e-09  7.8562e-10  7.8623e-09  2.6659e-08  1.0039e-04  0:33:56  736

  iter  continuity  x-velocity  y-velocity      energy           k       omega     time/iter
   265  2.2045e-04  1.1563e-09  8.0000e-10  7.7605e-09  2.5739e-08  9.6516e-05  0:33:50  735
   266  2.1362e-04  1.1309e-09  8.0982e-10  7.6756e-09  2.5229e-08  9.1215e-05  0:33:41  734
   267  2.0807e-04  1.1164e-09  8.3857e-10  7.5575e-09  2.4621e-08  8.6065e-05  0:33:39  733
   268  2.0429e-04  1.0727e-09  8.0911e-10  7.4090e-09  2.4338e-08  8.2281e-05  0:33:21  732
   269  2.0144e-04  1.0214e-09  7.3872e-10  7.2868e-09  2.4791e-08  8.1482e-05  0:33:16  731
   270  2.0021e-04  9.8473e-10  6.2579e-10  7.2563e-09  2.5382e-08  7.9884e-05  0:33:17  730
   271  1.9838e-04  9.9131e-10  5.8910e-10  7.2762e-09  2.5405e-08  7.7724e-05  0:33:16  729
   272  1.9503e-04  1.0065e-09  6.8596e-10  7.2751e-09  2.4718e-08  7.4415e-05  0:33:14  728
   273  1.9129e-04  1.0020e-09  7.6547e-10  7.2184e-09  2.3862e-08  7.0813e-05  0:33:34  727
   274  1.8838e-04  9.8826e-10  8.0813e-10  7.1138e-09  2.3111e-08  6.7393e-05  0:33:28  726
   275  1.8441e-04  9.3794e-10  7.5103e-10  6.9778e-09  2.2850e-08  6.3943e-05  0:33:24  725

  iter  continuity  x-velocity  y-velocity      energy           k       omega     time/iter
   276  1.8169e-04  8.8509e-10  6.2660e-10  6.8633e-09  2.2223e-08  6.0429e-05  0:34:05  724
   277  1.7479e-04  8.5142e-10  5.3061e-10  6.8386e-09  2.2878e-08  5.6764e-05  0:33:45  723
   278  1.7326e-04  8.7926e-10  5.1294e-10  6.8664e-09  2.2219e-08  5.3199e-05  0:33:29  722
   279  1.6550e-04  8.5660e-10  5.3411e-10  6.7574e-09  2.1270e-08  4.9847e-05  0:33:13  721
   280  1.6076e-04  8.0513e-10  4.6986e-10  6.7454e-09  2.2140e-08  4.7284e-05  0:33:07  720
   281  1.6694e-04  8.2532e-10  4.7115e-10  6.9551e-09  2.3325e-08  4.5017e-05  0:33:01  719
   282  1.7475e-04  9.0040e-10  6.6749e-10  7.3227e-09  2.5421e-08  4.1543e-05  0:32:55  718
   283  1.8976e-04  1.0154e-09  9.5200e-10  7.5330e-09  2.5999e-08  3.8323e-05  0:32:51  717
   284  2.0254e-04  1.0959e-09  1.1721e-09  7.4999e-09  2.4665e-08  3.5142e-05  0:32:50  716
   285  1.9677e-04  1.0126e-09  1.1125e-09  7.2968e-09  2.3000e-08  3.2338e-05  0:32:47  715
   286  1.9291e-04  9.2946e-10  9.8291e-10  7.1756e-09  2.3872e-08  2.9931e-05  0:32:44  714

  iter  continuity  x-velocity  y-velocity      energy           k       omega     time/iter
   287  1.9481e-04  8.5327e-10  7.4641e-10  7.1825e-09  2.5226e-08  2.7740e-05  0:32:36  713
   288  1.9243e-04  8.4474e-10  5.2474e-10  7.2580e-09  2.5093e-08  2.5743e-05  0:32:30  712
   289  1.8368e-04  8.4762e-10  5.1795e-10  7.2253e-09  2.4157e-08  2.3878e-05  0:32:35  711
   290  1.7363e-04  8.3263e-10  5.5999e-10  7.1440e-09  2.2987e-08  2.2252e-05  0:32:35  710
   291  1.6500e-04  8.0478e-10  5.5901e-10  7.0325e-09  2.2066e-08  2.0994e-05  0:32:29  709
   292  1.5816e-04  7.7171e-10  5.2938e-10  6.9097e-09  2.1288e-08  1.9527e-05  0:32:19  708
   293  1.5148e-04  7.4687e-10  5.0521e-10  6.8650e-09  2.1012e-08  1.8640e-05  0:32:12  707
   294  1.4585e-04  7.5498e-10  5.4222e-10  6.7998e-09  2.0170e-08  1.7074e-05  0:31:59  706
   295  1.4170e-04  7.2835e-10  5.2531e-10  6.6758e-09  1.9805e-08  1.5619e-05  0:32:06  705
   296  1.3734e-04  7.0702e-10  4.9571e-10  6.5903e-09  1.9465e-08  1.4363e-05  0:31:53  704
   297  1.3250e-04  7.0020e-10  4.9524e-10  6.5527e-09  1.9169e-08  1.3268e-05  0:31:42  703

  iter  continuity  x-velocity  y-velocity      energy           k       omega     time/iter
   298  1.2894e-04  6.9896e-10  5.1076e-10  6.5563e-09  1.9152e-08  1.2383e-05  0:31:35  702
   299  1.2734e-04  7.0912e-10  5.5017e-10  6.5447e-09  1.8711e-08  1.2953e-05  0:31:27  701
   300  1.2597e-04  7.0016e-10  5.6516e-10  6.4886e-09  1.8470e-08  1.1697e-05  0:31:20  700
   301  1.2473e-04  6.7776e-10  5.4166e-10  6.4292e-09  1.8284e-08  1.0298e-05  0:31:11  699
   302  1.2234e-04  6.6243e-10  5.1527e-10  6.3862e-09  1.8352e-08  9.3840e-06  0:31:07  698
   303  1.2011e-04  6.3765e-10  4.6480e-10  6.3879e-09  1.8800e-08  8.7668e-06  0:31:01  697
   304  1.1767e-04  6.2324e-10  3.8963e-10  6.4643e-09  1.9496e-08  8.2519e-06  0:31:01  696
   305  1.1821e-04  6.4218e-10  3.5370e-10  6.5429e-09  1.9382e-08  7.7913e-06  0:31:02  695
   306  1.1692e-04  6.5530e-10  4.0884e-10  6.5300e-09  1.8794e-08  7.3876e-06  0:30:57  694
   307  1.1304e-04  6.4542e-10  4.2850e-10  6.4772e-09  1.8288e-08  7.0255e-06  0:30:53  693
   308  1.0946e-04  6.3071e-10  4.2591e-10  6.4208e-09  1.7961e-08  6.7025e-06  0:30:48  692

  iter  continuity  x-velocity  y-velocity      energy           k       omega     time/iter
   309  1.0678e-04  6.0752e-10  3.9272e-10  6.3572e-09  1.8186e-08  6.4143e-06  0:30:43  691
   310  1.0632e-04  5.8865e-10  3.1958e-10  6.3049e-09  1.7867e-08  6.1648e-06  0:30:41  690
   311  1.0095e-04  5.7331e-10  2.9237e-10  6.2263e-09  1.7299e-08  5.9296e-06  0:30:39  689
   312  9.5632e-05  5.5854e-10  2.8164e-10  6.2383e-09  1.8260e-08  5.7258e-06  0:30:52  688
   313  9.8028e-05  6.0064e-10  3.6277e-10  6.2542e-09  1.7669e-08  5.5440e-06  0:30:51  687
   314  9.2139e-05  5.6157e-10  3.3380e-10  6.2288e-09  1.7673e-08  5.3806e-06  0:30:50  686
   315  9.3948e-05  5.5378e-10  2.7513e-10  6.4355e-09  1.9236e-08  5.2364e-06  0:30:49  685
   316  1.0409e-04  6.3831e-10  4.3399e-10  6.7777e-09  2.0914e-08  5.1286e-06  0:30:47  684
   317  1.1750e-04  7.4319e-10  6.7629e-10  7.0272e-09  2.0870e-08  5.0639e-06  0:31:07  683
   318  1.2579e-04  7.9021e-10  8.5602e-10  7.0916e-09  2.0353e-08  4.9379e-06  0:30:58  682
   319  1.3151e-04  8.1075e-10  9.7769e-10  6.9930e-09  2.0607e-08  7.2477e-06  0:30:59  681

  iter  continuity  x-velocity  y-velocity      energy           k       omega     time/iter
   320  1.3733e-04  7.7959e-10  9.2441e-10  6.9129e-09  2.0714e-08  5.4650e-06  0:30:50  680
   321  1.3719e-04  6.9505e-10  7.4221e-10  6.9670e-09  2.2159e-08  4.8704e-06  0:30:51  679
   322  1.4371e-04  6.5967e-10  4.6302e-10  7.1572e-09  2.3553e-08  4.6543e-06  0:30:54  678
   323  1.4626e-04  7.1574e-10  4.8346e-10  7.2528e-09  2.2723e-08  4.6211e-06  0:30:52  677
   324  1.4047e-04  7.2426e-10  6.0962e-10  7.1345e-09  2.0831e-08  4.7998e-06  0:30:52  676
   325  1.3044e-04  6.6350e-10  5.8075e-10  6.8963e-09  1.9002e-08  6.3683e-06  0:30:46  675
   326  1.2378e-04  6.2056e-10  5.2480e-10  6.7349e-09  1.8350e-08  5.3988e-06  0:30:40  674
   327  1.1881e-04  5.7471e-10  4.2600e-10  6.6024e-09  1.7515e-08  4.5810e-06  0:30:30  673
   328  1.1255e-04  5.4268e-10  3.5222e-10  6.4699e-09  1.6510e-08  5.0303e-06  0:30:27  672
   329  1.0527e-04  5.2196e-10  3.3731e-10  6.3285e-09  1.5405e-08  1.7268e-05  0:30:28  671
   330  1.0151e-04  4.9943e-10  3.2015e-10  6.2614e-09  1.5052e-08  7.5407e-06  0:30:22  670

  iter  continuity  x-velocity  y-velocity      energy           k       omega     time/iter
   331  9.8626e-05  5.0358e-10  3.4540e-10  6.2497e-09  1.4621e-08  4.9696e-06  0:30:16  669
   332  9.8129e-05  5.0533e-10  3.7811e-10  6.2282e-09  1.4187e-08  4.2909e-06  0:30:11  668
   333  9.8103e-05  5.0234e-10  4.0174e-10  6.1802e-09  1.3763e-08  4.1005e-06  0:30:03  667
   334  9.8129e-05  4.8395e-10  3.9422e-10  6.1278e-09  1.3575e-08  4.0390e-06  0:30:01  666
   335  9.8401e-05  4.6289e-10  3.6591e-10  6.0898e-09  1.3378e-08  4.0088e-06  0:29:55  665
   336  9.7937e-05  4.4695e-10  3.3880e-10  6.0649e-09  1.3335e-08  3.9813e-06  0:29:51  664
   337  9.7943e-05  4.3128e-10  3.0097e-10  6.0551e-09  1.3383e-08  3.9847e-06  0:29:43  663
   338  9.7738e-05  4.2513e-10  2.5854e-10  6.0863e-09  1.3498e-08  3.9589e-06  0:29:38  662
   339  9.7917e-05  4.3469e-10  2.5765e-10  6.1340e-09  1.3693e-08  3.9522e-06  0:29:56  661
   340  1.0056e-04  4.5711e-10  3.1848e-10  6.1678e-09  1.3322e-08  3.9331e-06  0:29:51  660
   341  1.0059e-04  4.5530e-10  3.4967e-10  6.1480e-09  1.2812e-08  3.9133e-06  0:29:42  659

  iter  continuity  x-velocity  y-velocity      energy           k       omega     time/iter
   342  9.9919e-05  4.4599e-10  3.5946e-10  6.1209e-09  1.2420e-08  3.8931e-06  0:29:32  658
   343  9.9190e-05  4.3031e-10  3.4922e-10  6.0754e-09  1.2183e-08  3.8549e-06  0:29:27  657
   344  9.8708e-05  4.0943e-10  3.1557e-10  6.0129e-09  1.2172e-08  3.8537e-06  0:29:18  656
   345  9.8078e-05  3.9155e-10  2.6889e-10  5.9752e-09  1.1921e-08  3.8129e-06  0:29:15  655
   346  9.5260e-05  3.7777e-10  2.4123e-10  5.9614e-09  1.2577e-08  3.8273e-06  0:29:10  654
   347  9.7279e-05  4.0036e-10  2.4002e-10  5.9842e-09  1.2147e-08  3.7809e-06  0:29:12  653
   348  9.2112e-05  3.6965e-10  2.1606e-10  6.0138e-09  1.2746e-08  3.8191e-06  0:29:11  652
   349  9.7133e-05  3.9919e-10  2.6082e-10  6.2412e-09  1.4357e-08  3.8240e-06  0:29:08  651
   350  1.0970e-04  4.9350e-10  4.5211e-10  6.6432e-09  1.6562e-08  3.8179e-06  0:29:08  650
   351  1.2710e-04  6.1557e-10  7.2477e-10  6.9361e-09  1.6669e-08  3.8196e-06  0:29:08  649
   352  1.3820e-04  6.7267e-10  9.3562e-10  6.8979e-09  1.6468e-08  3.7950e-06  0:29:11  648

  iter  continuity  x-velocity  y-velocity      energy           k       omega     time/iter
   353  1.4389e-04  6.6170e-10  9.4998e-10  6.7608e-09  1.5961e-08  3.8103e-06  0:29:08  647
   354  1.4314e-04  5.6271e-10  7.8359e-10  6.8128e-09  1.8170e-08  3.7789e-06  0:29:11  646
   355  1.5305e-04  5.1355e-10  4.4443e-10  7.1064e-09  2.0807e-08  3.8117e-06  0:29:12  645
   356  1.6279e-04  6.1249e-10  4.8450e-10  7.3073e-09  2.0554e-08  3.8013e-06  0:29:15  644
   357  1.5878e-04  6.5115e-10  6.8365e-10  7.2200e-09  1.8307e-08  3.7744e-06  0:29:25  643
   358  1.4638e-04  5.8949e-10  6.8255e-10  7.0038e-09  1.6268e-08  3.7367e-06  0:29:23  642
   359  1.4061e-04  5.0026e-10  5.4503e-10  6.7605e-09  1.4934e-08  3.7158e-06  0:29:19  641
   360  1.3474e-04  4.3956e-10  4.0760e-10  6.5115e-09  1.4031e-08  3.7173e-06  0:29:13  640
[...]
pressure yes 1 0 line_0.0244 ()/plot plot yes M2.25_N2_Pres_5222_Pchm_170_finest/Contour_Data/axial_mach_y_122 yes no no mach yes 1 0 line_0.0244 ()/plot plot yes M2.25_N2_Pres_5222_Pchm_170_finest/Contour_Data/axial_temperature_y_122 yes no no temperature yes 1 0 line_0.0244 ()/plot plot yes M2.25_N2_Pres_5222_Pchm_170_finest/Contour_Data/axial_density_y_122 yes no no density yes 1 0 line_0.0244 ()/surface/line-surface line_0.0246 0.041621 0.0246 0.774 0.0246/plot plot yes M2.25_N2_Pres_5222_Pchm_170_finest/Contour_Data/axial_pressure_y_123 yes no no total-pressure yes 1 0 line_0.0246 ()/plot plot yes M2.25_N2_Pres_5222_Pchm_170_finest/Contour_Data/axial_mach_y_123 yes no no mach yes 1 0 line_0.0246 ()/plot plot yes M2.25_N2_Pres_5222_Pchm_170_finest/Contour_Data/axial_temperature_y_123 yes no no temperature yes 1 0 line_0.0246 ()/plot plot yes M2.25_N2_Pres_5222_Pchm_170_finest/Contour_Data/axial_density_y_123 yes no no density yes 1 0 line_0.0246 ()/surface/line-surface line_0.0248 0.041621 0.0248 0.774 0.0248/plot plot yes M2.25_N2_Pres_5222_Pchm_170_finest/Contour_Data/axial_pressure_y_124 yes no no total-pressure yes 1 0 line_0.0248 ()/plot plot yes M2.25_N2_Pres_5222_Pchm_170_finest/Contour_Data/axial_mach_y_124 yes no no mach yes 1 0 line_0.0248 ()/plot plot yes M2.25_N2_Pres_5222_Pchm_170_finest/Contour_Data/axial_temperature_y_124 yes no no temperature yes 1 0 line_0.0248 ()/plot plot yes M2.25_N2_Pres_5222_Pchm_170_finest/Contour_Data/axial_density_y_124 yes no no density yes 1 0 line_0.0248 ()/surface/line-surface line_0.025 0.041621 0.025 0.774 0.025/plot plot yes M2.25_N2_Pres_5222_Pchm_170_finest/Contour_Data/axial_pressure_y_125 yes no no total-pressure yes 1 0 line_0.025 ()/plot plot yes M2.25_N2_Pres_5222_Pchm_170_finest/Contour_Data/axial_mach_y_125 yes no no mach yes 1 0 line_0.025 ()/plot plot yes M2.25_N2_Pres_5222_Pchm_170_finest/Contour_Data/axial_temperature_y_125 yes no no temperature yes 1 0 line_0.025 ()/plot plot yes M2.25_N2_Pres_5222_Pchm_170_finest/Contour_Data/axial_density_y_125 yes no no density yes 1 0 line_0.025 ()/surface/line-surface line_0.0252 0.041621 0.0252 0.774 0.0252/plot plot yes M2.25_N2_Pres_5222_Pchm_170_finest/Contour_Data/axial_pressure_y_126 yes no no total-pressure yes 1 0 line_0.0252 ()/plot plot yes M2.25_N2_Pres_5222_Pchm_170_finest/Contour_Data/axial_mach_y_126 yes no no mach yes 1 0 line_0.0252 ()/plot plot yes M2.25_N2_Pres_5222_Pchm_170_finest/Contour_Data/axial_temperature_y_126 yes no no temperature yes 1 0 line_0.0252 ()/plot plot yes M2.25_N2_Pres_5222_Pchm_170_finest/Contour_Data/axial_density_y_126 yes no no density yes 1 0 line_0.0252 ()/surface/line-surface line_0.0254 0.041621 0.0254 0.774 0.0254/plot plot yes M2.25_N2_Pres_5222_Pchm_170_finest/Contour_Data/axial_pressure_y_127 yes no no total-pressure yes 1 0 line_0.0254 ()/plot plot yes M2.25_N2_Pres_5222_Pchm_170_finest/Contour_Data/axial_mach_y_127 yes no no mach yes 1 0 line_0.0254 ()/plot plot yes M2.25_N2_Pres_5222_Pchm_170_finest/Contour_Data/axial_temperature_y_127 yes no no temperature yes 1 0 line_0.0254 ()/plot plot yes M2.25_N2_Pres_5222_Pchm_170_finest/Contour_Data/axial_density_y_127 yes no no density yes 1 0 line_0.0254 ()/surface/line-surface line_0.0256 0.041621 0.0256 0.774 0.0256/plot plot yes M2.25_N2_Pres_5222_Pchm_170_finest/Contour_Data/axial_pressure_y_128 yes no no total-pressure yes 1 0 line_0.0256 ()/plot plot yes M2.25_N2_Pres_5222_Pchm_170_finest/Contour_Data/axial_mach_y_128 yes no no mach yes 1 0 line_0.0256 ()/plot plot yes M2.25_N2_Pres_5222_Pchm_170_finest/Contour_Data/axial_temperature_y_128 yes no no temperature yes 1 0 line_0.0256 ()/plot plot yes M2.25_N2_Pres_5222_Pchm_170_finest/Contour_Data/axial_density_y_128 yes no no density yes 1 0 line_0.0256 ()/surface/line-surface line_0.0258 0.041621 0.0258 0.774 0.0258/plot plot yes M2.25_N2_Pres_5222_Pchm_170_finest/Contour_Data/axial_pressure_y_129 yes no no total-pressure yes 1 0 line_0.0258 ()/plot plot yes M2.25_N2_Pres_5222_Pchm_170_finest/Contour_Data/axial_mach_y_129 yes no no mach yes 1 0 line_0.0258 ()/plot plot yes M2.25_N2_Pres_5222_Pchm_170_finest/Contour_Data/axial_temperature_y_129 yes no no temperature yes 1 0 line_0.0258 ()/plot plot yes M2.25_N2_Pres_5222_Pchm_170_finest/Contour_Data/axial_density_y_129 yes no no density yes 1 0 line_0.0258 ()/surface/line-surface line_0.026 0.041621 0.026 0.774 0.026/plot plot yes M2.25_N2_Pres_5222_Pchm_170_finest/Contour_Data/axial_pressure_y_130 yes no no total-pressure yes 1 0 line_0.026 ()/plot plot yes M2.25_N2_Pres_5222_Pchm_170_finest/Contour_Data/axial_mach_y_130 yes no no mach yes 1 0 line_0.026 ()/plot plot yes M2.25_N2_Pres_5222_Pchm_170_finest/Contour_Data/axial_temperature_y_130 yes no no temperature yes 1 0 line_0.026 ()/plot plot yes M2.25_N2_Pres_5222_Pchm_170_finest/Contour_Data/axial_density_y_130 yes no no density yes 1 0 line_0.026 ()/surface/line-surface line_0.0262 0.041621 0.0262 0.774 0.0262/plot plot yes M2.25_N2_Pres_5222_Pchm_170_finest/Contour_Data/axial_pressure_y_131 yes no no total-pressure yes 1 0 line_0.0262 ()/plot plot yes M2.25_N2_Pres_5222_Pchm_170_finest/Contour_Data/axial_mach_y_131 yes no no mach yes 1 0 line_0.0262 ()/plot plot yes M2.25_N2_Pres_5222_Pchm_170_finest/Contour_Data/axial_temperature_y_131 yes no no temperature yes 1 0 line_0.0262 ()/plot plot yes M2.25_N2_Pres_5222_Pchm_170_finest/Contour_Data/axial_density_y_131 yes no no density yes 1 0 line_0.0262 ()/surface/line-surface line_0.0264 0.041621 0.0264 0.774 0.0264/plot plot yes M2.25_N2_Pres_5222_Pchm_170_finest/Contour_Data/axial_pressure_y_132 yes no no total-pressure yes 1 0 line_0.0264 ()/plot plot yes M2.25_N2_Pres_5222_Pchm_170_finest/Contour_Data/axial_mach_y_132 yes no no mach yes 1 0 line_0.0264 ()/plot plot yes M2.25_N2_Pres_5222_Pchm_170_finest/Contour_Data/axial_temperature_y_132 yes no no temperature yes 1 0 line_0.0264 ()/plot plot yes M2.25_N2_Pres_5222_Pchm_170_finest/Contour_Data/axial_density_y_132 yes no no density yes 1 0 line_0.0264 ()/surface/line-surface line_0.0266 0.041621 0.0266 0.774 0.0266/plot plot yes M2.25_N2_Pres_5222_Pchm_170_finest/Contour_Data/axial_pressure_y_133 yes no no total-pressure yes 1 0 line_0.0266 ()/plot plot yes M2.25_N2_Pres_5222_Pchm_170_finest/Contour_Data/axial_mach_y_133 yes no no mach yes 1 0 line_0.0266 ()/plot plot yes M2.25_N2_Pres_5222_Pchm_170_finest/Contour_Data/axial_temperature_y_133 yes no no temperature yes 1 0 line_0.0266 ()/plot plot yes M2.25_N2_Pres_5222_Pchm_170_finest/Contour_Data/axial_density_y_133 yes no no density yes 1 0 line_0.0266 ()/surface/line-surface line_0.0268 0.041621 0.0268 0.774 0.0268/plot plot yes M2.25_N2_Pres_5222_Pchm_170_finest/Contour_Data/axial_pressure_y_134 yes no no total-pressure yes 1 0 line_0.0268 ()/plot plot yes M2.25_N2_Pres_5222_Pchm_170_finest/Contour_Data/axial_mach_y_134 yes no no mach yes 1 0 line_0.0268 ()/plot plot yes M2.25_N2_Pres_5222_Pchm_170_finest/Contour_Data/axial_temperature_y_134 yes no no temperature yes 1 0 line_0.0268 ()/plot plot yes M2.25_N2_Pres_5222_Pchm_170_finest/Contour_Data/axial_density_y_134 yes no no density yes 1 0 line_0.0268 ()/surface/line-surface line_0.027 0.041621 0.027 0.774 0.027/plot plot yes M2.25_N2_Pres_5222_Pchm_170_finest/Contour_Data/axial_pressure_y_135 yes no no total-pressure yes 1 0 line_0.027 ()/plot plot yes M2.25_N2_Pres_5222_Pchm_170_finest/Contour_Data/axial_mach_y_135 yes no no mach yes 1 0 line_0.027 ()/plot plot yes M2.25_N2_Pres_5222_Pchm_170_finest/Contour_Data/axial_temperature_y_135 yes no no temperature yes 1 0 line_0.027 ()/plot plot yes M2.25_N2_Pres_5222_Pchm_170_finest/Contour_Data/axial_density_y_135 yes no no density yes 1 0 line_0.027 ()/surface/line-surface line_0.0272 0.041621 0.0272 0.774 0.0272/plot plot yes M2.25_N2_Pres_5222_Pchm_170_finest/Contour_Data/axial_pressure_y_136 yes no no total-pressure yes 1 0 line_0.0272 ()/plot plot yes M2.25_N2_Pres_5222_Pchm_170_finest/Contour_Data/axial_mach_y_136 yes no no mach yes 1 0 line_0.0272 ()/plot plot yes M2.25_N2_Pres_5222_Pchm_170_finest/Contour_Data/axial_temperature_y_136 yes no no temperature yes 1 0 line_0.0272 ()/plot plot yes M2.25_N2_Pres_5222_Pchm_170_finest/Contour_Data/axial_density_y_136 yes no no density yes 1 0 line_0.0272 ()/surface/line-surface line_0.0274 0.041621 0.0274 0.774 0.0274/plot plot yes M2.25_N2_Pres_5222_Pchm_170_finest/Contour_Data/axial_pressure_y_137 yes no no total-pressure yes 1 0 line_0.0274 ()/plot plot yes M2.25_N2_Pres_5222_Pchm_170_finest/Contour_Data/axial_mach_y_137 yes no no mach yes 1 0 line_0.0274 ()/plot plot yes M2.25_N2_Pres_5222_Pchm_170_finest/Contour_Data/axial_temperature_y_137 yes no no temperature yes 1 0 line_0.0274 ()/plot plot yes M2.25_N2_Pres_5222_Pchm_170_finest/Contour_Data/axial_density_y_137 yes no no density yes 1 0 line_0.0274 ()/surface/line-surface line_0.0276 0.041621 0.0276 0.774 0.0276/plot plot yes M2.25_N2_Pres_5222_Pchm_170_finest/Contour_Data/axial_pressure_y_138 yes no no total-pressure yes 1 0 line_0.0276 ()/plot plot yes M2.25_N2_Pres_5222_Pchm_170_finest/Contour_Data/axial_mach_y_138 yes no no mach yes 1 0 line_0.0276 ()/plot plot yes M2.25_N2_Pres_5222_Pchm_170_finest/Contour_Data/axial_temperature_y_138 yes no no temperature yes 1 0 line_0.0276 ()/plot plot yes M2.25_N2_Pres_5222_Pchm_170_finest/Contour_Data/axial_density_y_138 yes no no density yes 1 0 line_0.0276 ()/surface/line-surface line_0.0278 0.041621 0.0278 0.774 0.0278/plot plot yes M2.25_N2_Pres_5222_Pchm_170_finest/Contour_Data/axial_pressure_y_139 yes no no total-pressure yes 1 0 line_0.0278 ()/plot plot yes M2.25_N2_Pres_5222_Pchm_170_finest/Contour_Data/axial_mach_y_139 yes no no mach yes 1 0 line_0.0278 ()/plot plot yes M2.25_N2_Pres_5222_Pchm_170_finest/Contour_Data/axial_temperature_y_139 yes no no temperature yes 1 0 line_0.0278 ()/plot plot yes M2.25_N2_Pres_5222_Pchm_170_finest/Contour_Data/axial_density_y_139 yes no no density yes 1 0 line_0.0278 ()/surface/line-surface line_0.028 0.041621 0.028 0.774 0.028/plot plot yes M2.25_N2_Pres_5222_Pchm_170_finest/Contour_Data/axial_pressure_y_140 yes no no total-pressure yes 1 0 line_0.028 ()/plot plot yes M2.25_N2_Pres_5222_Pchm_170_finest/Contour_Data/axial_mach_y_140 yes no no mach yes 1 0 line_0.028 ()/plot plot yes M2.25_N2_Pres_5222_Pchm_170_finest/Contour_Data/axial_temperature_y_140 yes no no temperature yes 1 0 line_0.028 ()/plot plot yes M2.25_N2_Pres_5222_Pchm_170_finest/Contour_Data/axial_density_y_140 yes no no density yes 1 0 line_0.028 ()/surface/line-surface line_0.0282 0.041621 0.0282 0.774 0.0282/plot plot yes M2.25_N2_Pres_5222_Pchm_170_finest/Contour_Data/axial_pressure_y_141 yes no no total-pressure yes 1 0 line_0.0282 ()/plot plot yes M2.25_N2_Pres_5222_Pchm_170_finest/Contour_Data/axial_mach_y_141 yes no no mach yes 1 0 line_0.0282 ()/plot plot yes M2.25_N2_Pres_5222_Pchm_170_finest/Contour_Data/axial_temperature_y_141 yes no no temperature yes 1 0 line_0.0282 ()/plot plot yes M2.25_N2_Pres_5222_Pchm_170_finest/Contour_Data/axial_density_y_141 yes no no density yes 1 0 line_0.0282 ()/surface/line-surface line_0.0284 0.041621 0.0284 0.774 0.0284/plot plot yes M2.25_N2_Pres_5222_Pchm_170_finest/Contour_Data/axial_pressure_y_142 yes no no total-pressure yes 1 0 line_0.0284 ()/plot plot yes M2.25_N2_Pres_5222_Pchm_170_finest/Contour_Data/axial_mach_y_142 yes no no mach yes 1 0 line_0.0284 ()/plot plot yes M2.25_N2_Pres_5222_Pchm_170_finest/Contour_Data/axial_temperature_y_142 yes no no temperature yes 1 0 line_0.0284 ()/plot plot yes M2.25_N2_Pres_5222_Pchm_170_finest/Contour_Data/axial_density_y_142 yes no no density yes 1 0 line_0.0284 ()/surface/line-surface line_0.0286 0.041621 0.0286 0.774 0.0286/plot plot yes M2.25_N2_Pres_5222_Pchm_170_finest/Contour_Data/axial_pressure_y_143 yes no no total-pressure yes 1 0 line_0.0286 ()/plot plot yes M2.25_N2_Pres_5222_Pchm_170_finest/Contour_Data/axial_mach_y_143 yes no no mach yes 1 0 line_0.0286 ()/plot plot yes M2.25_N2_Pres_5222_Pchm_170_finest/Contour_Data/axial_temperature_y_143 yes no no temperature yes 1 0 line_0.0286 ()/plot plot yes M2.25_N2_Pres_5222_Pchm_170_finest/Contour_Data/axial_density_y_143 yes no no density yes 1 0 line_0.0286 ()/surface/line-surface line_0.0288 0.041621 0.0288 0.774 0.0288/plot plot yes M2.25_N2_Pres_5222_Pchm_170_finest/Contour_Data/axial_pressure_y_144 yes no no total-pressure yes 1 0 line_0.0288 ()/plot plot yes M2.25_N2_Pres_5222_Pchm_170_finest/Contour_Data/axial_mach_y_144 yes no no mach yes 1 0 line_0.0288 ()/plot plot yes M2.25_N2_Pres_5222_Pchm_170_finest/Contour_Data/axial_temperature_y_144 yes no no temperature yes 1 0 line_0.0288 ()/plot plot yes M2.25_N2_Pres_5222_Pchm_170_finest/Contour_Data/axial_density_y_144 yes no no density yes 1 0 line_0.0288 ()/surface/line-surface line_0.029 0.041621 0.029 0.774 0.029/plot plot yes M2.25_N2_Pres_5222_Pchm_170_finest/Contour_Data/axial_pressure_y_145 yes no no total-pressure yes 1 0 line_0.029 ()/plot plot yes M2.25_N2_Pres_5222_Pchm_170_finest/Contour_Data/axial_mach_y_145 yes no no mach yes 1 0 line_0.029 ()/plot plot yes M2.25_N2_Pres_5222_Pchm_170_finest/Contour_Data/axial_temperature_y_145 yes no no temperature yes 1 0 line_0.029 ()/plot plot yes M2.25_N2_Pres_5222_Pchm_170_finest/Contour_Data/axial_density_y_145 yes no no density yes 1 0 line_0.029 ()/surface/line-surface line_0.0292 0.041621 0.0292 0.774 0.0292/plot plot yes M2.25_N2_Pres_5222_Pchm_170_finest/Contour_Data/axial_pressure_y_146 yes no no total-pressure yes 1 0 line_0.0292 ()/plot plot yes M2.25_N2_Pres_5222_Pchm_170_finest/Contour_Data/axial_mach_y_146 yes no no mach yes 1 0 line_0.0292 ()/plot plot yes M2.25_N2_Pres_5222_Pchm_170_finest/Contour_Data/axial_temperature_y_146 yes no no temperature yes 1 0 line_0.0292 ()/plot plot yes M2.25_N2_Pres_5222_Pchm_170_finest/Contour_Data/axial_density_y_146 yes no no density yes 1 0 line_0.0292 ()/surface/line-surface line_0.0294 0.041621 0.0294 0.774 0.0294/plot plot yes M2.25_N2_Pres_5222_Pchm_170_finest/Contour_Data/axial_pressure_y_147 yes no no total-pressure yes 1 0 line_0.0294 ()/plot plot yes M2.25_N2_Pres_5222_Pchm_170_finest/Contour_Data/axial_mach_y_147 yes no no mach yes 1 0 line_0.0294 ()/plot plot yes M2.25_N2_Pres_5222_Pchm_170_finest/Contour_Data/axial_temperature_y_147 yes no no temperature yes 1 0 line_0.0294 ()/plot plot yes M2.25_N2_Pres_5222_Pchm_170_finest/Contour_Data/axial_density_y_147 yes no no density yes 1 0 line_0.0294 ()/surface/line-surface line_0.0296 0.041621 0.0296 0.774 0.0296/plot plot yes M2.25_N2_Pres_5222_Pchm_170_finest/Contour_Data/axial_pressure_y_148 yes no no total-pressure yes 1 0 line_0.0296 ()/plot plot yes M2.25_N2_Pres_5222_Pchm_170_finest/Contour_Data/axial_mach_y_148 yes no no mach yes 1 0 line_0.0296 ()/plot plot yes M2.25_N2_Pres_5222_Pchm_170_finest/Contour_Data/axial_temperature_y_148 yes no no temperature yes 1 0 line_0.0296 ()/plot plot yes M2.25_N2_Pres_5222_Pchm_170_finest/Contour_Data/axial_density_y_148 yes no no density yes 1 0 line_0.0296 ()/surface/line-surface line_0.0298 0.041621 0.0298 0.774 0.0298/plot plot yes M2.25_N2_Pres_5222_Pchm_170_finest/Contour_Data/axial_pressure_y_149 yes no no total-pressure yes 1 0 line_0.0298 ()/plot plot yes M2.25_N2_Pres_5222_Pchm_170_finest/Contour_Data/axial_mach_y_149 yes no no mach yes 1 0 line_0.0298 ()/plot plot yes M2.25_N2_Pres_5222_Pchm_170_finest/Contour_Data/axial_temperature_y_149 yes no no temperature yes 1 0 line_0.0298 ()/plot plot yes M2.25_N2_Pres_5222_Pchm_170_finest/Contour_Data/axial_density_y_149 yes no no density yes 1 0 line_0.0298 ()/surface/line-surface line_0.03 0.041621 0.03 0.774 0.03/plot plot yes M2.25_N2_Pres_5222_Pchm_170_finest/Contour_Data/axial_pressure_y_150 yes no no total-pressure yes 1 0 line_0.03 ()/plot plot yes M2.25_N2_Pres_5222_Pchm_170_finest/Contour_Data/axial_mach_y_150 yes no no mach yes 1 0 line_0.03 ()/plot plot yes M2.25_N2_Pres_5222_Pchm_170_finest/Contour_Data/axial_temperature_y_150 yes no no temperature yes 1 0 line_0.03 ()/plot plot yes M2.25_N2_Pres_5222_Pchm_170_finest/Contour_Data/axial_density_y_150 yes no no density yes 1 0 line_0.03 ()#f


> 
adjoint/                mesh/                   report/
define/                 parallel/               server/
display/                plot/                   solve/
exit                    preferences/            surface/
file/                   print-license-usage     views/

> ;(ti-menu-load-string (format #f "/preferences/appearance graphics-background-color-1 255 255 255"))
;(ti-menu-load-string (format #f "/preferences/appearance graphics-background-color-2 255 255 255"))

adjoint/                mesh/                   report/
define/                 parallel/               server/
display/                plot/                   solve/
exit                    preferences/            surface/
file/                   print-license-usage     views/

> 
adjoint/                mesh/                   report/
define/                 parallel/               server/
display/                plot/                   solve/
exit                    preferences/            surface/
file/                   print-license-usage     views/

> ;(ti-menu-load-string (format #f "/display/views autoscale")
;(ti-menu-load-string (format #f "/display/set/windows ruler? yes")
;(ti-menu-load-string (format #f "/display/save-picture mach-contour")

adjoint/                mesh/                   report/
define/                 parallel/               server/
display/                plot/                   solve/
exit                    preferences/            surface/
file/                   print-license-usage     views/

> ;(ti-menu-load-string (format #f "/display/objects create contour temp-contour field temperature surfaces-list int_fluid () colormap color bgr-modern format %0.4f position 3 font-size 0.05 size 35 length 0.3 width 1.2 () ()"))
;(ti-menu-load-string (format #f "/display/objects/display temp-contour")
;(ti-menu-load-string (format #f "/display/views autoscale")
;(ti-menu-load-string (format #f "/display/set/windows ruler? yes")
;(ti-menu-load-string (format #f "/display/save-picture temp-contour")

adjoint/                mesh/                   report/
define/                 parallel/               server/
display/                plot/                   solve/
exit                    preferences/            surface/
file/                   print-license-usage     views/

> (ti-menu-load-string (format #f "/file/write-case M2.25_N2_Pres_5222_Pchm_170_finest/CFD_Data.cas y"))
/file/write-case M2.25_N2_Pres_5222_Pchm_170_finest/CFD_Data.cas Fast-loading "/apps/applications/ansys/2023R1/1/default/v231/fluent/fluent23.1.0/addons/afd/lib/hdfio.bin"
Done.

Writing to d13s9b2.arc4.leeds.ac.uk:"/nobackup/scldr/ACRE/M2.25_N2_Pres_5222_Pchm_170_finest/CFD_Data.cas.h5" in NODE0 mode and compression level 1 ...
Grouping cells for Laplace smoothing ...
     2261702 cells,     2 zones ...
     4554620 faces,    18 zones ...
     2252945 nodes,     1 zone  ...
  Done.

  Writing automatic adaption criteria ...
  Done.
Done.
yinvalid command [y]
#t


> (ti-menu-load-string (format #f "/file/write-data M2.25_N2_Pres_5222_Pchm_170_finest/CFD_Data.dat y"))
/file/write-data M2.25_N2_Pres_5222_Pchm_170_finest/CFD_Data.dat 
Writing to d13s9b2.arc4.leeds.ac.uk:"/nobackup/scldr/ACRE/M2.25_N2_Pres_5222_Pchm_170_finest/CFD_Data.dat.h5" in NODE0 mode and compression level 1 ...
  Writing results.
Done.
yinvalid command [y]
#t


> 
adjoint/                mesh/                   report/
define/                 parallel/               server/
display/                plot/                   solve/
exit                    preferences/            surface/
file/                   print-license-usage     views/

> exit 
Posting ANSYS Product Improvement Program performance data 
Done.
Auto-Transcript Stop Time:  00:11:41, 25 Nov 2023 
Total Transcript Time: 53 Minute 29 Second.

Automatic transcript closed.
